-------------------------------------------------------
          Amber 16 SANDER                              2016
          -------------------------------------------------------

  [-O]verwriting output

File Assignments:

 Here is the input file:

Equilibrate water in NPT
 &cntrl

  nmropt = 0,
  ntx    = 1,       irest  = 0,       ntrx   = 1,      ntxo   = 1,
  ntpr   = 1000,    ntwx   = 1000,    ntwv   = 0,      ntwe   = 1000,
  iwrap  = 0,       ioutfm = 1,

  ntf    = 2,       ntb    = 2,
  cut = 9.0,

  ibelly = 0,       ntr    = 1,
  restraintmask = ':1',
  restraint_wt = 100.0,

  imin   = 0,
  nstlim = 10000,
  nscm   = 1000,
  t      = 0.0,     dt     = 0.002,

  temp0     = 298.0,   tempi  = 0.0,
  ig        = -1,
  ntt       = 3,
  gamma_ln  = 3.0,

  ntp    = 1,       pres0  = 1.0,     comp   = 44.6,
  taup   = 1.0,

  ntc    = 2,       tol    = 0.000001, watnam = 'WAT ',

 &end

--------------------------------------------------------------------------------
   1.  RESOURCE   USE:
--------------------------------------------------------------------------------

 getting new box info from bottom of inpcrd

 NATOM  =    2680 NTYPES =       9 NBONH =    2670 MBONA  =       9
 NTHETH =      25 MTHETA =      11 NPHIH =      43 MPHIA  =      24
 NHPARM =       0 NPARM  =       0 NNB   =    3643 NRES   =     889
 NBONA  =       9 NTHETA =      11 NPHIA =      24 NUMBND =      10
 NUMANG =      16 NPTRA  =      19 NATYP =       9 NPHB   =       1
 IFBOX  =       2 NMXRS  =      10 IFCAP =       0 NEXTRA =       0
 NCOPY  =       0

     BOX TYPE: TRUNCATED OCTAHEDRON
Note: ig = -1. Setting random seed to   592672 based on wallclock time in microseconds
      and disabling the synchronization of random numbers between tasks
      to improve performance.

--------------------------------------------------------------------------------
   2.  CONTROL  DATA  FOR  THE  RUN
--------------------------------------------------------------------------------

default_name

General flags:
     imin    =       0, nmropt  =       0

Nature and format of input:
     ntx     =       1, irest   =       0, ntrx    =       1

Nature and format of output:
     ntxo    =       1, ntpr    =    1000, ntrx    =       1, ntwr    =   10000
     iwrap   =       0, ntwx    =    1000, ntwv    =       0, ntwe    =    1000
     ioutfm  =       1, ntwprt  =       0, idecomp =       0, rbornstat=      0

Potential function:
     ntf     =       2, ntb     =       2, igb     =       0, nsnb    =      25
     ipol    =       0, gbsa    =       0, iesp    =       0
     dielc   =   1.00000, cut     =   9.00000, intdiel =   1.00000

Frozen or restrained atoms:
     ibelly  =       0, ntr     =       1
     restraint_wt = 100.00000

Molecular dynamics:
     nstlim  =     10000, nscm    =         0, nrespa  =         1
     t       =   0.00000, dt      =   0.00200, vlimit  =  20.00000

Langevin dynamics temperature regulation:
     ig      =  592672
     temp0   = 298.00000, tempi   =   0.00000, gamma_ln=   3.00000

Pressure regulation:
     ntp     =       1
     pres0   =   1.00000, comp    =  44.60000, taup    =   1.00000

SHAKE:
     ntc     =       2, jfastw  =       0
     tol     =   0.00000

Ewald parameters:
     verbose =       0, ew_type =       0, nbflag  =       1, use_pme =       1
     vdwmeth =       1, eedmeth =       1, netfrc  =       1
     Box X =   34.620   Box Y =   34.620   Box Z =   34.620
     Alpha =  109.471   Beta  =  109.471   Gamma =  109.471
     NFFT1 =   36       NFFT2 =   36       NFFT3 =   36
     Cutoff=    9.000   Tol   =0.100E-04
     Ewald Coefficient =  0.30768
     Interpolation order =    4

    LOADING THE CONSTRAINED ATOMS AS GROUPS

   5.  REFERENCE ATOM COORDINATES

  defa
     Mask :1; matches     6 atoms

--------------------------------------------------------------------------------
   3.  ATOMIC COORDINATES AND VELOCITIES
--------------------------------------------------------------------------------

defa
 begin time read from input coords =     0.000 ps

 Number of triangulated 3-point waters found:      886

     Sum of charges from parm topology file =  -0.00000000
     Forcing neutrality...

--------------------------------------------------------------------------------
   4.  RESULTS
 NSTEP =        0   TIME(PS) =       0.000  TEMP(K) =     0.00  PRESS = -4356.9
 Etot   =    -11702.4482  EKtot   =         0.0000  EPtot      =    -11702.4482
 BOND   =         0.9397  ANGLE   =         3.2268  DIHED      =        12.1147
 1-4 NB =         2.0323  1-4 EEL =        43.3716  VDWAALS    =      2185.1576
 EELEC  =    -13949.7837  EHBOND  =         0.0000  RESTRAINT  =         0.4929
 EAMBER (non-restraint)  =    -11702.9411
 EKCMT  =         0.0000  VIRIAL  =      3004.7568  VOLUME     =     31941.2559
                                                    Density    =         0.8373
 Ewald error estimate:   0.2812E-03
 ------------------------------------------------------------------------------

      A V E R A G E S   O V E R   10000 S T E P S

 NSTEP =    10000   TIME(PS) =      20.000  TEMP(K) =   292.84  PRESS =  -183.2
 Etot   =     -6943.3195  EKtot   =      1562.4879  EPtot      =     -8505.8074
 BOND   =         3.1100  ANGLE   =         9.4525  DIHED      =        12.9076
 1-4 NB =         3.3339  1-4 EEL =        45.6586  VDWAALS    =      1275.1707
 EELEC  =     -9858.5945  EHBOND  =         0.0000  RESTRAINT  =         3.1537
 EAMBER (non-restraint)  =     -8508.9611
 EKCMT  =       776.5292  VIRIAL  =       893.0898  VOLUME     =     27746.1193
                                                    Density    =         0.9652
 Ewald error estimate:   0.2183E-03
 ------------------------------------------------------------------------------

      R M S  F L U C T U A T I O N S

 NSTEP =    10000   TIME(PS) =      20.000  TEMP(K) =    25.99  PRESS =   446.8
 Etot   =       289.5278  EKtot   =       138.6768  EPtot      =       156.9239
 BOND   =         1.4667  ANGLE   =         2.4675  DIHED      =         1.3948
 1-4 NB =         0.7888  1-4 EEL =         1.9898  VDWAALS    =        85.3145
 EELEC  =       233.5922  EHBOND  =         0.0000  RESTRAINT  =         1.2632
 EAMBER (non-restraint)  =       155.6607
 EKCMT  =        67.9409  VIRIAL  =       262.8154  VOLUME     =      1042.3615
                                                    Density    =         0.0334
 Ewald error estimate:   0.1668E-03
 ------------------------------------------------------------------------------
