-------------------------------------------------------
          Amber 16 SANDER                              2016
          -------------------------------------------------------

  [-O]verwriting output

File Assignments:

 Here is the input file:

Equilibrate water in NPT
 &cntrl

  nmropt = 0,
  ntx    = 1,       irest  = 0,       ntrx   = 1,      ntxo   = 1,
  ntpr   = 1000,    ntwx   = 1000,    ntwv   = 0,      ntwe   = 1000,
  iwrap  = 0,       ioutfm = 1,

  ntf    = 2,       ntb    = 2,
  cut = 9.0,

  ibelly = 0,       ntr    = 1,
  restraintmask = ':1',
  restraint_wt = 100.0,

  imin   = 0,
  nstlim = 10000,
  nscm   = 1000,
  t      = 0.0,     dt     = 0.002,

  temp0     = 298.0,   tempi  = 0.0,
  ig        = -1,
  ntt       = 3,
  gamma_ln  = 3.0,

  ntp    = 1,       pres0  = 1.0,     comp   = 44.6,
  taup   = 1.0,

  ntc    = 2,       tol    = 0.000001, watnam = 'WAT ',

 &end

--------------------------------------------------------------------------------
   1.  RESOURCE   USE:
--------------------------------------------------------------------------------

 getting new box info from bottom of inpcrd

 NATOM  =    2716 NTYPES =       9 NBONH =    2706 MBONA  =       9
 NTHETH =      25 MTHETA =      11 NPHIH =      43 MPHIA  =      24
 NHPARM =       0 NPARM  =       0 NNB   =    3691 NRES   =     901
 NBONA  =       9 NTHETA =      11 NPHIA =      24 NUMBND =      10
 NUMANG =      16 NPTRA  =      19 NATYP =       9 NPHB   =       1
 IFBOX  =       2 NMXRS  =      10 IFCAP =       0 NEXTRA =       0
 NCOPY  =       0

     BOX TYPE: TRUNCATED OCTAHEDRON
Note: ig = -1. Setting random seed to   644796 based on wallclock time in microseconds
      and disabling the synchronization of random numbers between tasks
      to improve performance.

--------------------------------------------------------------------------------
   2.  CONTROL  DATA  FOR  THE  RUN
--------------------------------------------------------------------------------

default_name

General flags:
     imin    =       0, nmropt  =       0

Nature and format of input:
     ntx     =       1, irest   =       0, ntrx    =       1

Nature and format of output:
     ntxo    =       1, ntpr    =    1000, ntrx    =       1, ntwr    =   10000
     iwrap   =       0, ntwx    =    1000, ntwv    =       0, ntwe    =    1000
     ioutfm  =       1, ntwprt  =       0, idecomp =       0, rbornstat=      0

Potential function:
     ntf     =       2, ntb     =       2, igb     =       0, nsnb    =      25
     ipol    =       0, gbsa    =       0, iesp    =       0
     dielc   =   1.00000, cut     =   9.00000, intdiel =   1.00000

Frozen or restrained atoms:
     ibelly  =       0, ntr     =       1
     restraint_wt = 100.00000

Molecular dynamics:
     nstlim  =     10000, nscm    =         0, nrespa  =         1
     t       =   0.00000, dt      =   0.00200, vlimit  =  20.00000

Langevin dynamics temperature regulation:
     ig      =  644796
     temp0   = 298.00000, tempi   =   0.00000, gamma_ln=   3.00000

Pressure regulation:
     ntp     =       1
     pres0   =   1.00000, comp    =  44.60000, taup    =   1.00000

SHAKE:
     ntc     =       2, jfastw  =       0
     tol     =   0.00000

Ewald parameters:
     verbose =       0, ew_type =       0, nbflag  =       1, use_pme =       1
     vdwmeth =       1, eedmeth =       1, netfrc  =       1
     Box X =   34.820   Box Y =   34.820   Box Z =   34.820
     Alpha =  109.471   Beta  =  109.471   Gamma =  109.471
     NFFT1 =   36       NFFT2 =   36       NFFT3 =   36
     Cutoff=    9.000   Tol   =0.100E-04
     Ewald Coefficient =  0.30768
     Interpolation order =    4

    LOADING THE CONSTRAINED ATOMS AS GROUPS

   5.  REFERENCE ATOM COORDINATES

  defa
     Mask :1; matches     6 atoms

--------------------------------------------------------------------------------
   3.  ATOMIC COORDINATES AND VELOCITIES
--------------------------------------------------------------------------------

defa
 begin time read from input coords =     0.000 ps

 Number of triangulated 3-point waters found:      898

     Sum of charges from parm topology file =  -0.00000000
     Forcing neutrality...

--------------------------------------------------------------------------------
   4.  RESULTS
 NSTEP =        0   TIME(PS) =       0.000  TEMP(K) =     0.00  PRESS = -4701.2
 Etot   =    -11858.0352  EKtot   =         0.0000  EPtot      =    -11858.0352
 BOND   =         0.8651  ANGLE   =         1.6044  DIHED      =         9.3064
 1-4 NB =         2.9385  1-4 EEL =        44.7839  VDWAALS    =      2160.4810
 EELEC  =    -14078.0527  EHBOND  =         0.0000  RESTRAINT  =         0.0382
 EAMBER (non-restraint)  =    -11858.0734
 EKCMT  =         0.0000  VIRIAL  =      3298.9266  VOLUME     =     32499.9440
                                                    Density    =         0.8340
 Ewald error estimate:   0.3540E-04
 ------------------------------------------------------------------------------

      A V E R A G E S   O V E R   10000 S T E P S

 NSTEP =    10000   TIME(PS) =      20.000  TEMP(K) =   291.77  PRESS =  -182.7
 Etot   =     -7062.8111  EKtot   =      1577.6349  EPtot      =     -8640.4459
 BOND   =         3.0846  ANGLE   =         8.4253  DIHED      =        12.2892
 1-4 NB =         3.1093  1-4 EEL =        46.5776  VDWAALS    =      1299.7286
 EELEC  =    -10016.8090  EHBOND  =         0.0000  RESTRAINT  =         3.1484
 EAMBER (non-restraint)  =     -8643.5943
 EKCMT  =       784.0063  VIRIAL  =       902.2850  VOLUME     =     28179.2282
                                                    Density    =         0.9634
 Ewald error estimate:   0.1866E-03
 ------------------------------------------------------------------------------

      R M S  F L U C T U A T I O N S

 NSTEP =    10000   TIME(PS) =      20.000  TEMP(K) =    26.25  PRESS =   432.4
 Etot   =       293.7268  EKtot   =       141.9300  EPtot      =       158.8982
 BOND   =         1.4738  ANGLE   =         2.2918  DIHED      =         1.3987
 1-4 NB =         0.7203  1-4 EEL =         2.2345  VDWAALS    =        87.9931
 EELEC  =       237.0654  EHBOND  =         0.0000  RESTRAINT  =         1.2546
 EAMBER (non-restraint)  =       157.6435
 EKCMT  =        69.3863  VIRIAL  =       252.4875  VOLUME     =      1183.9195
                                                    Density    =         0.0374
 Ewald error estimate:   0.1400E-03
 ------------------------------------------------------------------------------
