-------------------------------------------------------
          Amber 16 SANDER                              2016
          -------------------------------------------------------

  [-O]verwriting output

File Assignments:

 Here is the input file:

Equilibrate water in NPT
 &cntrl

  nmropt = 0,
  ntx    = 1,       irest  = 0,       ntrx   = 1,      ntxo   = 1,
  ntpr   = 1000,    ntwx   = 1000,    ntwv   = 0,      ntwe   = 1000,
  iwrap  = 0,       ioutfm = 1,

  ntf    = 2,       ntb    = 2,
  cut = 9.0,

  ibelly = 0,       ntr    = 1,
  restraintmask = ':1',
  restraint_wt = 100.0,

  imin   = 0,
  nstlim = 10000,
  nscm   = 1000,
  t      = 0.0,     dt     = 0.002,

  temp0     = 298.0,   tempi  = 0.0,
  ig        = -1,
  ntt       = 3,
  gamma_ln  = 3.0,

  ntp    = 1,       pres0  = 1.0,     comp   = 44.6,
  taup   = 1.0,

  ntc    = 2,       tol    = 0.000001, watnam = 'WAT ',

 &end

--------------------------------------------------------------------------------
   1.  RESOURCE   USE:
--------------------------------------------------------------------------------

 getting new box info from bottom of inpcrd

 NATOM  =    2884 NTYPES =       9 NBONH =    2874 MBONA  =       9
 NTHETH =      25 MTHETA =      11 NPHIH =      43 MPHIA  =      24
 NHPARM =       0 NPARM  =       0 NNB   =    3915 NRES   =     957
 NBONA  =       9 NTHETA =      11 NPHIA =      24 NUMBND =      10
 NUMANG =      16 NPTRA  =      19 NATYP =       9 NPHB   =       1
 IFBOX  =       2 NMXRS  =      10 IFCAP =       0 NEXTRA =       0
 NCOPY  =       0

     BOX TYPE: TRUNCATED OCTAHEDRON
Note: ig = -1. Setting random seed to   387584 based on wallclock time in microseconds
      and disabling the synchronization of random numbers between tasks
      to improve performance.

--------------------------------------------------------------------------------
   2.  CONTROL  DATA  FOR  THE  RUN
--------------------------------------------------------------------------------

default_name

General flags:
     imin    =       0, nmropt  =       0

Nature and format of input:
     ntx     =       1, irest   =       0, ntrx    =       1

Nature and format of output:
     ntxo    =       1, ntpr    =    1000, ntrx    =       1, ntwr    =   10000
     iwrap   =       0, ntwx    =    1000, ntwv    =       0, ntwe    =    1000
     ioutfm  =       1, ntwprt  =       0, idecomp =       0, rbornstat=      0

Potential function:
     ntf     =       2, ntb     =       2, igb     =       0, nsnb    =      25
     ipol    =       0, gbsa    =       0, iesp    =       0
     dielc   =   1.00000, cut     =   9.00000, intdiel =   1.00000

Frozen or restrained atoms:
     ibelly  =       0, ntr     =       1
     restraint_wt = 100.00000

Molecular dynamics:
     nstlim  =     10000, nscm    =         0, nrespa  =         1
     t       =   0.00000, dt      =   0.00200, vlimit  =  20.00000

Langevin dynamics temperature regulation:
     ig      =  387584
     temp0   = 298.00000, tempi   =   0.00000, gamma_ln=   3.00000

Pressure regulation:
     ntp     =       1
     pres0   =   1.00000, comp    =  44.60000, taup    =   1.00000

SHAKE:
     ntc     =       2, jfastw  =       0
     tol     =   0.00000

Ewald parameters:
     verbose =       0, ew_type =       0, nbflag  =       1, use_pme =       1
     vdwmeth =       1, eedmeth =       1, netfrc  =       1
     Box X =   35.548   Box Y =   35.548   Box Z =   35.548
     Alpha =  109.471   Beta  =  109.471   Gamma =  109.471
     NFFT1 =   36       NFFT2 =   36       NFFT3 =   36
     Cutoff=    9.000   Tol   =0.100E-04
     Ewald Coefficient =  0.30768
     Interpolation order =    4

    LOADING THE CONSTRAINED ATOMS AS GROUPS

   5.  REFERENCE ATOM COORDINATES

  defa
     Mask :1; matches     6 atoms

--------------------------------------------------------------------------------
   3.  ATOMIC COORDINATES AND VELOCITIES
--------------------------------------------------------------------------------

defa
 begin time read from input coords =     0.000 ps

 Number of triangulated 3-point waters found:      954

     Sum of charges from parm topology file =  -0.00000000
     Forcing neutrality...

--------------------------------------------------------------------------------
   4.  RESULTS
 NSTEP =        0   TIME(PS) =       0.000  TEMP(K) =     0.00  PRESS = -5637.8
 Etot   =    -12649.5416  EKtot   =         0.0000  EPtot      =    -12649.5416
 BOND   =         0.5613  ANGLE   =         1.7739  DIHED      =        10.5037
 1-4 NB =         3.0680  1-4 EEL =        43.6859  VDWAALS    =      2209.0962
 EELEC  =    -14918.3056  EHBOND  =         0.0000  RESTRAINT  =         0.0750
 EAMBER (non-restraint)  =    -12649.6166
 EKCMT  =         0.0000  VIRIAL  =      4209.2475  VOLUME     =     34579.2382
                                                    Density    =         0.8323
 Ewald error estimate:   0.1300E-03
 ------------------------------------------------------------------------------

      A V E R A G E S   O V E R   10000 S T E P S

 NSTEP =    10000   TIME(PS) =      20.000  TEMP(K) =   293.39  PRESS =  -182.8
 Etot   =     -7480.0238  EKtot   =      1684.3277  EPtot      =     -9164.3515
 BOND   =         3.1519  ANGLE   =         8.2530  DIHED      =        11.5193
 1-4 NB =         3.4772  1-4 EEL =        44.6246  VDWAALS    =      1367.5145
 EELEC  =    -10606.0412  EHBOND  =         0.0000  RESTRAINT  =         3.1491
 EAMBER (non-restraint)  =     -9167.5006
 EKCMT  =       837.0867  VIRIAL  =       963.0389  VOLUME     =     29795.0833
                                                    Density    =         0.9673
 Ewald error estimate:   0.1895E-03
 ------------------------------------------------------------------------------

      R M S  F L U C T U A T I O N S

 NSTEP =    10000   TIME(PS) =      20.000  TEMP(K) =    26.95  PRESS =   463.7
 Etot   =       336.9922  EKtot   =       154.7462  EPtot      =       189.5389
 BOND   =         1.4642  ANGLE   =         2.2197  DIHED      =         1.2925
 1-4 NB =         0.8217  1-4 EEL =         1.9304  VDWAALS    =        92.5291
 EELEC  =       272.2056  EHBOND  =         0.0000  RESTRAINT  =         1.3593
 EAMBER (non-restraint)  =       188.1796
 EKCMT  =        76.3421  VIRIAL  =       279.0268  VOLUME     =      1164.9501
                                                    Density    =         0.0351
 Ewald error estimate:   0.1430E-03
 ------------------------------------------------------------------------------
