-------------------------------------------------------
          Amber 16 SANDER                              2016
          -------------------------------------------------------

  [-O]verwriting output

File Assignments:

 Here is the input file:

Equilibrate water in NPT
 &cntrl

  nmropt = 0,
  ntx    = 1,       irest  = 0,       ntrx   = 1,      ntxo   = 1,
  ntpr   = 1000,    ntwx   = 1000,    ntwv   = 0,      ntwe   = 1000,
  iwrap  = 0,       ioutfm = 1,

  ntf    = 2,       ntb    = 2,
  cut = 9.0,

  ibelly = 0,       ntr    = 1,
  restraintmask = ':1',
  restraint_wt = 100.0,

  imin   = 0,
  nstlim = 10000,
  nscm   = 1000,
  t      = 0.0,     dt     = 0.002,

  temp0     = 298.0,   tempi  = 0.0,
  ig        = -1,
  ntt       = 3,
  gamma_ln  = 3.0,

  ntp    = 1,       pres0  = 1.0,     comp   = 44.6,
  taup   = 1.0,

  ntc    = 2,       tol    = 0.000001, watnam = 'WAT ',

 &end

--------------------------------------------------------------------------------
   1.  RESOURCE   USE:
--------------------------------------------------------------------------------

 getting new box info from bottom of inpcrd

 NATOM  =    2731 NTYPES =       9 NBONH =    2721 MBONA  =       9
 NTHETH =      25 MTHETA =      11 NPHIH =      43 MPHIA  =      24
 NHPARM =       0 NPARM  =       0 NNB   =    3711 NRES   =     906
 NBONA  =       9 NTHETA =      11 NPHIA =      24 NUMBND =      10
 NUMANG =      16 NPTRA  =      19 NATYP =       9 NPHB   =       1
 IFBOX  =       2 NMXRS  =      10 IFCAP =       0 NEXTRA =       0
 NCOPY  =       0

     BOX TYPE: TRUNCATED OCTAHEDRON
Note: ig = -1. Setting random seed to   175931 based on wallclock time in microseconds
      and disabling the synchronization of random numbers between tasks
      to improve performance.

--------------------------------------------------------------------------------
   2.  CONTROL  DATA  FOR  THE  RUN
--------------------------------------------------------------------------------

default_name

General flags:
     imin    =       0, nmropt  =       0

Nature and format of input:
     ntx     =       1, irest   =       0, ntrx    =       1

Nature and format of output:
     ntxo    =       1, ntpr    =    1000, ntrx    =       1, ntwr    =   10000
     iwrap   =       0, ntwx    =    1000, ntwv    =       0, ntwe    =    1000
     ioutfm  =       1, ntwprt  =       0, idecomp =       0, rbornstat=      0

Potential function:
     ntf     =       2, ntb     =       2, igb     =       0, nsnb    =      25
     ipol    =       0, gbsa    =       0, iesp    =       0
     dielc   =   1.00000, cut     =   9.00000, intdiel =   1.00000

Frozen or restrained atoms:
     ibelly  =       0, ntr     =       1
     restraint_wt = 100.00000

Molecular dynamics:
     nstlim  =     10000, nscm    =         0, nrespa  =         1
     t       =   0.00000, dt      =   0.00200, vlimit  =  20.00000

Langevin dynamics temperature regulation:
     ig      =  175931
     temp0   = 298.00000, tempi   =   0.00000, gamma_ln=   3.00000

Pressure regulation:
     ntp     =       1
     pres0   =   1.00000, comp    =  44.60000, taup    =   1.00000

SHAKE:
     ntc     =       2, jfastw  =       0
     tol     =   0.00000

Ewald parameters:
     verbose =       0, ew_type =       0, nbflag  =       1, use_pme =       1
     vdwmeth =       1, eedmeth =       1, netfrc  =       1
     Box X =   34.863   Box Y =   34.863   Box Z =   34.863
     Alpha =  109.471   Beta  =  109.471   Gamma =  109.471
     NFFT1 =   36       NFFT2 =   36       NFFT3 =   36
     Cutoff=    9.000   Tol   =0.100E-04
     Ewald Coefficient =  0.30768
     Interpolation order =    4

    LOADING THE CONSTRAINED ATOMS AS GROUPS

   5.  REFERENCE ATOM COORDINATES

  defa
     Mask :1; matches     6 atoms

--------------------------------------------------------------------------------
   3.  ATOMIC COORDINATES AND VELOCITIES
--------------------------------------------------------------------------------

defa
 begin time read from input coords =     0.000 ps

 Number of triangulated 3-point waters found:      903

     Sum of charges from parm topology file =  -0.00000000
     Forcing neutrality...

--------------------------------------------------------------------------------
   4.  RESULTS
 NSTEP =        0   TIME(PS) =       0.000  TEMP(K) =     0.00  PRESS = -4720.8
 Etot   =    -11985.4454  EKtot   =         0.0000  EPtot      =    -11985.4454
 BOND   =         0.9150  ANGLE   =         2.8740  DIHED      =         8.3871
 1-4 NB =         2.9126  1-4 EEL =        44.0645  VDWAALS    =      2193.3106
 EELEC  =    -14238.0273  EHBOND  =         0.0000  RESTRAINT  =         0.1181
 EAMBER (non-restraint)  =    -11985.5635
 EKCMT  =         0.0000  VIRIAL  =      3324.7596  VOLUME     =     32618.9526
                                                    Density    =         0.8355
 Ewald error estimate:   0.2535E-04
 ------------------------------------------------------------------------------

      A V E R A G E S   O V E R   10000 S T E P S

 NSTEP =    10000   TIME(PS) =      20.000  TEMP(K) =   293.60  PRESS =  -176.5
 Etot   =     -7061.1612  EKtot   =      1596.3021  EPtot      =     -8657.4633
 BOND   =         3.3765  ANGLE   =         9.5306  DIHED      =        11.1283
 1-4 NB =         3.3431  1-4 EEL =        45.4135  VDWAALS    =      1297.0415
 EELEC  =    -10030.4431  EHBOND  =         0.0000  RESTRAINT  =         3.1463
 EAMBER (non-restraint)  =     -8660.6095
 EKCMT  =       792.4554  VIRIAL  =       907.4548  VOLUME     =     28325.6394
                                                    Density    =         0.9636
 Ewald error estimate:   0.1836E-03
 ------------------------------------------------------------------------------

      R M S  F L U C T U A T I O N S

 NSTEP =    10000   TIME(PS) =      20.000  TEMP(K) =    27.02  PRESS =   440.8
 Etot   =       312.3914  EKtot   =       146.9226  EPtot      =       172.6186
 BOND   =         1.5409  ANGLE   =         2.5109  DIHED      =         1.4212
 1-4 NB =         0.6772  1-4 EEL =         1.9611  VDWAALS    =        91.3996
 EELEC  =       254.6115  EHBOND  =         0.0000  RESTRAINT  =         1.2970
 EAMBER (non-restraint)  =       171.3216
 EKCMT  =        71.8044  VIRIAL  =       259.0485  VOLUME     =      1132.4172
                                                    Density    =         0.0357
 Ewald error estimate:   0.1384E-03
 ------------------------------------------------------------------------------
