-------------------------------------------------------
          Amber 16 SANDER                              2016
          -------------------------------------------------------

  [-O]verwriting output

File Assignments:

 Here is the input file:

Equilibrate water in NPT
 &cntrl

  nmropt = 0,
  ntx    = 1,       irest  = 0,       ntrx   = 1,      ntxo   = 1,
  ntpr   = 1000,    ntwx   = 1000,    ntwv   = 0,      ntwe   = 1000,
  iwrap  = 0,       ioutfm = 1,

  ntf    = 2,       ntb    = 2,
  cut = 9.0,

  ibelly = 0,       ntr    = 1,
  restraintmask = ':1',
  restraint_wt = 100.0,

  imin   = 0,
  nstlim = 10000,
  nscm   = 1000,
  t      = 0.0,     dt     = 0.002,

  temp0     = 298.0,   tempi  = 0.0,
  ig        = -1,
  ntt       = 3,
  gamma_ln  = 3.0,

  ntp    = 1,       pres0  = 1.0,     comp   = 44.6,
  taup   = 1.0,

  ntc    = 2,       tol    = 0.000001, watnam = 'WAT ',

 &end

--------------------------------------------------------------------------------
   1.  RESOURCE   USE:
--------------------------------------------------------------------------------

 getting new box info from bottom of inpcrd

 NATOM  =    3151 NTYPES =       9 NBONH =    3141 MBONA  =       9
 NTHETH =      25 MTHETA =      11 NPHIH =      43 MPHIA  =      24
 NHPARM =       0 NPARM  =       0 NNB   =    4271 NRES   =    1046
 NBONA  =       9 NTHETA =      11 NPHIA =      24 NUMBND =      10
 NUMANG =      16 NPTRA  =      19 NATYP =       9 NPHB   =       1
 IFBOX  =       2 NMXRS  =      10 IFCAP =       0 NEXTRA =       0
 NCOPY  =       0

     BOX TYPE: TRUNCATED OCTAHEDRON
Note: ig = -1. Setting random seed to   701442 based on wallclock time in microseconds
      and disabling the synchronization of random numbers between tasks
      to improve performance.

--------------------------------------------------------------------------------
   2.  CONTROL  DATA  FOR  THE  RUN
--------------------------------------------------------------------------------

default_name

General flags:
     imin    =       0, nmropt  =       0

Nature and format of input:
     ntx     =       1, irest   =       0, ntrx    =       1

Nature and format of output:
     ntxo    =       1, ntpr    =    1000, ntrx    =       1, ntwr    =   10000
     iwrap   =       0, ntwx    =    1000, ntwv    =       0, ntwe    =    1000
     ioutfm  =       1, ntwprt  =       0, idecomp =       0, rbornstat=      0

Potential function:
     ntf     =       2, ntb     =       2, igb     =       0, nsnb    =      25
     ipol    =       0, gbsa    =       0, iesp    =       0
     dielc   =   1.00000, cut     =   9.00000, intdiel =   1.00000

Frozen or restrained atoms:
     ibelly  =       0, ntr     =       1
     restraint_wt = 100.00000

Molecular dynamics:
     nstlim  =     10000, nscm    =         0, nrespa  =         1
     t       =   0.00000, dt      =   0.00200, vlimit  =  20.00000

Langevin dynamics temperature regulation:
     ig      =  701442
     temp0   = 298.00000, tempi   =   0.00000, gamma_ln=   3.00000

Pressure regulation:
     ntp     =       1
     pres0   =   1.00000, comp    =  44.60000, taup    =   1.00000

SHAKE:
     ntc     =       2, jfastw  =       0
     tol     =   0.00000

Ewald parameters:
     verbose =       0, ew_type =       0, nbflag  =       1, use_pme =       1
     vdwmeth =       1, eedmeth =       1, netfrc  =       1
     Box X =   36.534   Box Y =   36.534   Box Z =   36.534
     Alpha =  109.471   Beta  =  109.471   Gamma =  109.471
     NFFT1 =   36       NFFT2 =   36       NFFT3 =   36
     Cutoff=    9.000   Tol   =0.100E-04
     Ewald Coefficient =  0.30768
     Interpolation order =    4

    LOADING THE CONSTRAINED ATOMS AS GROUPS

   5.  REFERENCE ATOM COORDINATES

  defa
     Mask :1; matches     6 atoms

--------------------------------------------------------------------------------
   3.  ATOMIC COORDINATES AND VELOCITIES
--------------------------------------------------------------------------------

defa
 begin time read from input coords =     0.000 ps

 Number of triangulated 3-point waters found:     1043

     Sum of charges from parm topology file =  -0.00000000
     Forcing neutrality...

--------------------------------------------------------------------------------
   4.  RESULTS
 NSTEP =        0   TIME(PS) =       0.000  TEMP(K) =     0.00  PRESS = -5116.6
 Etot   =    -13795.9849  EKtot   =         0.0000  EPtot      =    -13795.9849
 BOND   =         0.4810  ANGLE   =         1.0390  DIHED      =        10.0217
 1-4 NB =         2.9372  1-4 EEL =        46.6089  VDWAALS    =      2474.9661
 EELEC  =    -16332.8477  EHBOND  =         0.0000  RESTRAINT  =         0.8090
 EAMBER (non-restraint)  =    -13796.7938
 EKCMT  =         0.0000  VIRIAL  =      4146.8951  VOLUME     =     37537.0955
                                                    Density    =         0.8376
 Ewald error estimate:   0.1979E-03
 ------------------------------------------------------------------------------

      A V E R A G E S   O V E R   10000 S T E P S

 NSTEP =    10000   TIME(PS) =      20.000  TEMP(K) =   292.75  PRESS =  -190.1
 Etot   =     -8182.9924  EKtot   =      1836.0247  EPtot      =    -10019.0171
 BOND   =         3.1804  ANGLE   =         8.3502  DIHED      =        11.1387
 1-4 NB =         3.3693  1-4 EEL =        46.5268  VDWAALS    =      1506.2469
 EELEC  =    -11601.0942  EHBOND  =         0.0000  RESTRAINT  =         3.2648
 EAMBER (non-restraint)  =    -10022.2819
 EKCMT  =       913.4300  VIRIAL  =      1055.1599  VOLUME     =     32675.0571
                                                    Density    =         0.9635
 Ewald error estimate:   0.1860E-03
 ------------------------------------------------------------------------------

      R M S  F L U C T U A T I O N S

 NSTEP =    10000   TIME(PS) =      20.000  TEMP(K) =    26.41  PRESS =   417.0
 Etot   =       353.1382  EKtot   =       165.6363  EPtot      =       193.7419
 BOND   =         1.4807  ANGLE   =         2.2885  DIHED      =         1.4016
 1-4 NB =         0.7699  1-4 EEL =         2.2234  VDWAALS    =        95.2112
 EELEC  =       279.2172  EHBOND  =         0.0000  RESTRAINT  =         1.3537
 EAMBER (non-restraint)  =       192.3882
 EKCMT  =        80.6353  VIRIAL  =       272.8912  VOLUME     =      1189.7801
                                                    Density    =         0.0327
 Ewald error estimate:   0.1380E-03
 ------------------------------------------------------------------------------
