-------------------------------------------------------
          Amber 16 SANDER                              2016
          -------------------------------------------------------

  [-O]verwriting output

File Assignments:

 Here is the input file:

Equilibrate water in NPT
 &cntrl

  nmropt = 0,
  ntx    = 1,       irest  = 0,       ntrx   = 1,      ntxo   = 1,
  ntpr   = 1000,    ntwx   = 1000,    ntwv   = 0,      ntwe   = 1000,
  iwrap  = 0,       ioutfm = 1,

  ntf    = 2,       ntb    = 2,
  cut = 9.0,

  ibelly = 0,       ntr    = 1,
  restraintmask = ':1',
  restraint_wt = 100.0,

  imin   = 0,
  nstlim = 10000,
  nscm   = 1000,
  t      = 0.0,     dt     = 0.002,

  temp0     = 298.0,   tempi  = 0.0,
  ig        = -1,
  ntt       = 3,
  gamma_ln  = 3.0,

  ntp    = 1,       pres0  = 1.0,     comp   = 44.6,
  taup   = 1.0,

  ntc    = 2,       tol    = 0.000001, watnam = 'WAT ',

 &end

--------------------------------------------------------------------------------
   1.  RESOURCE   USE:
--------------------------------------------------------------------------------

 getting new box info from bottom of inpcrd

 NATOM  =    2761 NTYPES =       9 NBONH =    2751 MBONA  =       9
 NTHETH =      25 MTHETA =      11 NPHIH =      43 MPHIA  =      24
 NHPARM =       0 NPARM  =       0 NNB   =    3751 NRES   =     916
 NBONA  =       9 NTHETA =      11 NPHIA =      24 NUMBND =      10
 NUMANG =      16 NPTRA  =      19 NATYP =       9 NPHB   =       1
 IFBOX  =       2 NMXRS  =      10 IFCAP =       0 NEXTRA =       0
 NCOPY  =       0

     BOX TYPE: TRUNCATED OCTAHEDRON
Note: ig = -1. Setting random seed to   638297 based on wallclock time in microseconds
      and disabling the synchronization of random numbers between tasks
      to improve performance.

--------------------------------------------------------------------------------
   2.  CONTROL  DATA  FOR  THE  RUN
--------------------------------------------------------------------------------

default_name

General flags:
     imin    =       0, nmropt  =       0

Nature and format of input:
     ntx     =       1, irest   =       0, ntrx    =       1

Nature and format of output:
     ntxo    =       1, ntpr    =    1000, ntrx    =       1, ntwr    =   10000
     iwrap   =       0, ntwx    =    1000, ntwv    =       0, ntwe    =    1000
     ioutfm  =       1, ntwprt  =       0, idecomp =       0, rbornstat=      0

Potential function:
     ntf     =       2, ntb     =       2, igb     =       0, nsnb    =      25
     ipol    =       0, gbsa    =       0, iesp    =       0
     dielc   =   1.00000, cut     =   9.00000, intdiel =   1.00000

Frozen or restrained atoms:
     ibelly  =       0, ntr     =       1
     restraint_wt = 100.00000

Molecular dynamics:
     nstlim  =     10000, nscm    =         0, nrespa  =         1
     t       =   0.00000, dt      =   0.00200, vlimit  =  20.00000

Langevin dynamics temperature regulation:
     ig      =  638297
     temp0   = 298.00000, tempi   =   0.00000, gamma_ln=   3.00000

Pressure regulation:
     ntp     =       1
     pres0   =   1.00000, comp    =  44.60000, taup    =   1.00000

SHAKE:
     ntc     =       2, jfastw  =       0
     tol     =   0.00000

Ewald parameters:
     verbose =       0, ew_type =       0, nbflag  =       1, use_pme =       1
     vdwmeth =       1, eedmeth =       1, netfrc  =       1
     Box X =   35.017   Box Y =   35.017   Box Z =   35.017
     Alpha =  109.471   Beta  =  109.471   Gamma =  109.471
     NFFT1 =   36       NFFT2 =   36       NFFT3 =   36
     Cutoff=    9.000   Tol   =0.100E-04
     Ewald Coefficient =  0.30768
     Interpolation order =    4

    LOADING THE CONSTRAINED ATOMS AS GROUPS

   5.  REFERENCE ATOM COORDINATES

  defa
     Mask :1; matches     6 atoms

--------------------------------------------------------------------------------
   3.  ATOMIC COORDINATES AND VELOCITIES
--------------------------------------------------------------------------------

defa
 begin time read from input coords =     0.000 ps

 Number of triangulated 3-point waters found:      913

     Sum of charges from parm topology file =  -0.00000000
     Forcing neutrality...

--------------------------------------------------------------------------------
   4.  RESULTS
 NSTEP =        0   TIME(PS) =       0.000  TEMP(K) =     0.00  PRESS = -4885.7
 Etot   =    -12092.1922  EKtot   =         0.0000  EPtot      =    -12092.1922
 BOND   =         0.6705  ANGLE   =         3.7627  DIHED      =         9.4233
 1-4 NB =         2.1974  1-4 EEL =        42.4819  VDWAALS    =      2195.9357
 EELEC  =    -14346.7430  EHBOND  =         0.0000  RESTRAINT  =         0.0794
 EAMBER (non-restraint)  =    -12092.2716
 EKCMT  =         0.0000  VIRIAL  =      3486.5804  VOLUME     =     33052.0093
                                                    Density    =         0.8336
 Ewald error estimate:   0.3947E-04
 ------------------------------------------------------------------------------

      A V E R A G E S   O V E R   10000 S T E P S

 NSTEP =    10000   TIME(PS) =      20.000  TEMP(K) =   293.52  PRESS =  -189.5
 Etot   =     -7147.4860  EKtot   =      1613.3393  EPtot      =     -8760.8253
 BOND   =         3.3163  ANGLE   =        10.0137  DIHED      =        11.2553
 1-4 NB =         3.1039  1-4 EEL =        44.4760  VDWAALS    =      1311.5974
 EELEC  =    -10147.7301  EHBOND  =         0.0000  RESTRAINT  =         3.1423
 EAMBER (non-restraint)  =     -8763.9676
 EKCMT  =       805.9241  VIRIAL  =       930.3245  VOLUME     =     28616.1160
                                                    Density    =         0.9642
 Ewald error estimate:   0.2052E-03
 ------------------------------------------------------------------------------

      R M S  F L U C T U A T I O N S

 NSTEP =    10000   TIME(PS) =      20.000  TEMP(K) =    27.00  PRESS =   441.4
 Etot   =       311.8439  EKtot   =       148.3949  EPtot      =       170.1584
 BOND   =         1.5115  ANGLE   =         2.7054  DIHED      =         1.4864
 1-4 NB =         0.6822  1-4 EEL =         2.0068  VDWAALS    =        87.4794
 EELEC  =       247.9050  EHBOND  =         0.0000  RESTRAINT  =         1.3096
 EAMBER (non-restraint)  =       168.8487
 EKCMT  =        73.7738  VIRIAL  =       258.4563  VOLUME     =      1099.8464
                                                    Density    =         0.0343
 Ewald error estimate:   0.1522E-03
 ------------------------------------------------------------------------------
