-------------------------------------------------------
          Amber 16 SANDER                              2016
          -------------------------------------------------------

  [-O]verwriting output

File Assignments:

 Here is the input file:

Equilibrate water in NPT
 &cntrl

  nmropt = 0,
  ntx    = 1,       irest  = 0,       ntrx   = 1,      ntxo   = 1,
  ntpr   = 1000,    ntwx   = 1000,    ntwv   = 0,      ntwe   = 1000,
  iwrap  = 0,       ioutfm = 1,

  ntf    = 2,       ntb    = 2,
  cut = 9.0,

  ibelly = 0,       ntr    = 1,
  restraintmask = ':1',
  restraint_wt = 100.0,

  imin   = 0,
  nstlim = 10000,
  nscm   = 1000,
  t      = 0.0,     dt     = 0.002,

  temp0     = 298.0,   tempi  = 0.0,
  ig        = -1,
  ntt       = 3,
  gamma_ln  = 3.0,

  ntp    = 1,       pres0  = 1.0,     comp   = 44.6,
  taup   = 1.0,

  ntc    = 2,       tol    = 0.000001, watnam = 'WAT ',

 &end

--------------------------------------------------------------------------------
   1.  RESOURCE   USE:
--------------------------------------------------------------------------------

 getting new box info from bottom of inpcrd

 NATOM  =    3091 NTYPES =       9 NBONH =    3081 MBONA  =       9
 NTHETH =      25 MTHETA =      11 NPHIH =      43 MPHIA  =      24
 NHPARM =       0 NPARM  =       0 NNB   =    4191 NRES   =    1026
 NBONA  =       9 NTHETA =      11 NPHIA =      24 NUMBND =      10
 NUMANG =      16 NPTRA  =      19 NATYP =       9 NPHB   =       1
 IFBOX  =       2 NMXRS  =      10 IFCAP =       0 NEXTRA =       0
 NCOPY  =       0

     BOX TYPE: TRUNCATED OCTAHEDRON
Note: ig = -1. Setting random seed to   379048 based on wallclock time in microseconds
      and disabling the synchronization of random numbers between tasks
      to improve performance.

--------------------------------------------------------------------------------
   2.  CONTROL  DATA  FOR  THE  RUN
--------------------------------------------------------------------------------

default_name

General flags:
     imin    =       0, nmropt  =       0

Nature and format of input:
     ntx     =       1, irest   =       0, ntrx    =       1

Nature and format of output:
     ntxo    =       1, ntpr    =    1000, ntrx    =       1, ntwr    =   10000
     iwrap   =       0, ntwx    =    1000, ntwv    =       0, ntwe    =    1000
     ioutfm  =       1, ntwprt  =       0, idecomp =       0, rbornstat=      0

Potential function:
     ntf     =       2, ntb     =       2, igb     =       0, nsnb    =      25
     ipol    =       0, gbsa    =       0, iesp    =       0
     dielc   =   1.00000, cut     =   9.00000, intdiel =   1.00000

Frozen or restrained atoms:
     ibelly  =       0, ntr     =       1
     restraint_wt = 100.00000

Molecular dynamics:
     nstlim  =     10000, nscm    =         0, nrespa  =         1
     t       =   0.00000, dt      =   0.00200, vlimit  =  20.00000

Langevin dynamics temperature regulation:
     ig      =  379048
     temp0   = 298.00000, tempi   =   0.00000, gamma_ln=   3.00000

Pressure regulation:
     ntp     =       1
     pres0   =   1.00000, comp    =  44.60000, taup    =   1.00000

SHAKE:
     ntc     =       2, jfastw  =       0
     tol     =   0.00000

Ewald parameters:
     verbose =       0, ew_type =       0, nbflag  =       1, use_pme =       1
     vdwmeth =       1, eedmeth =       1, netfrc  =       1
     Box X =   36.364   Box Y =   36.364   Box Z =   36.364
     Alpha =  109.471   Beta  =  109.471   Gamma =  109.471
     NFFT1 =   36       NFFT2 =   36       NFFT3 =   36
     Cutoff=    9.000   Tol   =0.100E-04
     Ewald Coefficient =  0.30768
     Interpolation order =    4

    LOADING THE CONSTRAINED ATOMS AS GROUPS

   5.  REFERENCE ATOM COORDINATES

  defa
     Mask :1; matches     6 atoms

--------------------------------------------------------------------------------
   3.  ATOMIC COORDINATES AND VELOCITIES
--------------------------------------------------------------------------------

defa
 begin time read from input coords =     0.000 ps

 Number of triangulated 3-point waters found:     1023

     Sum of charges from parm topology file =  -0.00000000
     Forcing neutrality...

--------------------------------------------------------------------------------
   4.  RESULTS
 NSTEP =        0   TIME(PS) =       0.000  TEMP(K) =     0.00  PRESS = -5269.8
 Etot   =    -13472.8878  EKtot   =         0.0000  EPtot      =    -13472.8878
 BOND   =         0.6237  ANGLE   =         0.9842  DIHED      =         8.5212
 1-4 NB =         2.8260  1-4 EEL =        45.7020  VDWAALS    =      2388.7336
 EELEC  =    -15920.3734  EHBOND  =         0.0000  RESTRAINT  =         0.0950
 EAMBER (non-restraint)  =    -13472.9827
 EKCMT  =         0.0000  VIRIAL  =      4211.7108  VOLUME     =     37015.5474
                                                    Density    =         0.8333
 Ewald error estimate:   0.1832E-03
 ------------------------------------------------------------------------------

      A V E R A G E S   O V E R   10000 S T E P S

 NSTEP =    10000   TIME(PS) =      20.000  TEMP(K) =   293.22  PRESS =  -186.4
 Etot   =     -8017.2872  EKtot   =      1803.9648  EPtot      =     -9821.2520
 BOND   =         2.8772  ANGLE   =         8.1005  DIHED      =        11.0129
 1-4 NB =         3.2152  1-4 EEL =        45.5389  VDWAALS    =      1468.7282
 EELEC  =    -11363.8238  EHBOND  =         0.0000  RESTRAINT  =         3.0989
 EAMBER (non-restraint)  =     -9824.3509
 EKCMT  =       898.0905  VIRIAL  =      1035.3275  VOLUME     =     31944.8449
                                                    Density    =         0.9670
 Ewald error estimate:   0.2035E-03
 ------------------------------------------------------------------------------

      R M S  F L U C T U A T I O N S

 NSTEP =    10000   TIME(PS) =      20.000  TEMP(K) =    26.10  PRESS =   441.4
 Etot   =       336.3101  EKtot   =       160.5629  EPtot      =       183.3867
 BOND   =         1.3314  ANGLE   =         2.1406  DIHED      =         1.0862
 1-4 NB =         0.7121  1-4 EEL =         2.0045  VDWAALS    =        93.2557
 EELEC  =       266.1854  EHBOND  =         0.0000  RESTRAINT  =         1.2296
 EAMBER (non-restraint)  =       182.1571
 EKCMT  =        78.2016  VIRIAL  =       288.0982  VOLUME     =      1273.5229
                                                    Density    =         0.0357
 Ewald error estimate:   0.1497E-03
 ------------------------------------------------------------------------------
