-------------------------------------------------------
          Amber 16 SANDER                              2016
          -------------------------------------------------------

  [-O]verwriting output

File Assignments:

 Here is the input file:

Equilibrate water in NPT
 &cntrl

  nmropt = 0,
  ntx    = 1,       irest  = 0,       ntrx   = 1,      ntxo   = 1,
  ntpr   = 1000,    ntwx   = 1000,    ntwv   = 0,      ntwe   = 1000,
  iwrap  = 0,       ioutfm = 1,

  ntf    = 2,       ntb    = 2,
  cut = 9.0,

  ibelly = 0,       ntr    = 1,
  restraintmask = ':1',
  restraint_wt = 100.0,

  imin   = 0,
  nstlim = 10000,
  nscm   = 1000,
  t      = 0.0,     dt     = 0.002,

  temp0     = 298.0,   tempi  = 0.0,
  ig        = -1,
  ntt       = 3,
  gamma_ln  = 3.0,

  ntp    = 1,       pres0  = 1.0,     comp   = 44.6,
  taup   = 1.0,

  ntc    = 2,       tol    = 0.000001, watnam = 'WAT ',

 &end

--------------------------------------------------------------------------------
   1.  RESOURCE   USE:
--------------------------------------------------------------------------------

 getting new box info from bottom of inpcrd

 NATOM  =    2992 NTYPES =       9 NBONH =    2982 MBONA  =       9
 NTHETH =      25 MTHETA =      11 NPHIH =      43 MPHIA  =      24
 NHPARM =       0 NPARM  =       0 NNB   =    4059 NRES   =     993
 NBONA  =       9 NTHETA =      11 NPHIA =      24 NUMBND =      10
 NUMANG =      16 NPTRA  =      19 NATYP =       9 NPHB   =       1
 IFBOX  =       2 NMXRS  =      10 IFCAP =       0 NEXTRA =       0
 NCOPY  =       0

     BOX TYPE: TRUNCATED OCTAHEDRON
Note: ig = -1. Setting random seed to   798230 based on wallclock time in microseconds
      and disabling the synchronization of random numbers between tasks
      to improve performance.

--------------------------------------------------------------------------------
   2.  CONTROL  DATA  FOR  THE  RUN
--------------------------------------------------------------------------------

default_name

General flags:
     imin    =       0, nmropt  =       0

Nature and format of input:
     ntx     =       1, irest   =       0, ntrx    =       1

Nature and format of output:
     ntxo    =       1, ntpr    =    1000, ntrx    =       1, ntwr    =   10000
     iwrap   =       0, ntwx    =    1000, ntwv    =       0, ntwe    =    1000
     ioutfm  =       1, ntwprt  =       0, idecomp =       0, rbornstat=      0

Potential function:
     ntf     =       2, ntb     =       2, igb     =       0, nsnb    =      25
     ipol    =       0, gbsa    =       0, iesp    =       0
     dielc   =   1.00000, cut     =   9.00000, intdiel =   1.00000

Frozen or restrained atoms:
     ibelly  =       0, ntr     =       1
     restraint_wt = 100.00000

Molecular dynamics:
     nstlim  =     10000, nscm    =         0, nrespa  =         1
     t       =   0.00000, dt      =   0.00200, vlimit  =  20.00000

Langevin dynamics temperature regulation:
     ig      =  798230
     temp0   = 298.00000, tempi   =   0.00000, gamma_ln=   3.00000

Pressure regulation:
     ntp     =       1
     pres0   =   1.00000, comp    =  44.60000, taup    =   1.00000

SHAKE:
     ntc     =       2, jfastw  =       0
     tol     =   0.00000

Ewald parameters:
     verbose =       0, ew_type =       0, nbflag  =       1, use_pme =       1
     vdwmeth =       1, eedmeth =       1, netfrc  =       1
     Box X =   36.057   Box Y =   36.057   Box Z =   36.057
     Alpha =  109.471   Beta  =  109.471   Gamma =  109.471
     NFFT1 =   36       NFFT2 =   36       NFFT3 =   36
     Cutoff=    9.000   Tol   =0.100E-04
     Ewald Coefficient =  0.30768
     Interpolation order =    4

    LOADING THE CONSTRAINED ATOMS AS GROUPS

   5.  REFERENCE ATOM COORDINATES

  defa
     Mask :1; matches     6 atoms

--------------------------------------------------------------------------------
   3.  ATOMIC COORDINATES AND VELOCITIES
--------------------------------------------------------------------------------

defa
 begin time read from input coords =     0.000 ps

 Number of triangulated 3-point waters found:      990

     Sum of charges from parm topology file =  -0.00000000
     Forcing neutrality...

--------------------------------------------------------------------------------
   4.  RESULTS
 NSTEP =        0   TIME(PS) =       0.000  TEMP(K) =     0.00  PRESS = -5373.3
 Etot   =    -13138.8839  EKtot   =         0.0000  EPtot      =    -13138.8839
 BOND   =         0.3520  ANGLE   =         1.0765  DIHED      =        11.1263
 1-4 NB =         2.9845  1-4 EEL =        46.4671  VDWAALS    =      2323.1393
 EELEC  =    -15525.2520  EHBOND  =         0.0000  RESTRAINT  =         1.2224
 EAMBER (non-restraint)  =    -13140.1063
 EKCMT  =         0.0000  VIRIAL  =      4186.7305  VOLUME     =     36087.4146
                                                    Density    =         0.8274
 Ewald error estimate:   0.1213E-04
 ------------------------------------------------------------------------------

      A V E R A G E S   O V E R   10000 S T E P S

 NSTEP =    10000   TIME(PS) =      20.000  TEMP(K) =   292.95  PRESS =  -200.7
 Etot   =     -7769.6080  EKtot   =      1744.7244  EPtot      =     -9514.3325
 BOND   =         3.1596  ANGLE   =         8.0092  DIHED      =        10.8312
 1-4 NB =         3.2273  1-4 EEL =        45.9367  VDWAALS    =      1421.3053
 EELEC  =    -11010.1304  EHBOND  =         0.0000  RESTRAINT  =         3.3286
 EAMBER (non-restraint)  =     -9517.6611
 EKCMT  =       865.8579  VIRIAL  =      1009.0326  VOLUME     =     30936.3282
                                                    Density    =         0.9668
 Ewald error estimate:   0.1987E-03
 ------------------------------------------------------------------------------

      R M S  F L U C T U A T I O N S

 NSTEP =    10000   TIME(PS) =      20.000  TEMP(K) =    26.34  PRESS =   428.4
 Etot   =       338.8350  EKtot   =       156.8731  EPtot      =       189.1788
 BOND   =         1.4713  ANGLE   =         2.1482  DIHED      =         1.0671
 1-4 NB =         0.7220  1-4 EEL =         2.0706  VDWAALS    =        93.8709
 EELEC  =       275.1468  EHBOND  =         0.0000  RESTRAINT  =         1.2856
 EAMBER (non-restraint)  =       187.8932
 EKCMT  =        77.3636  VIRIAL  =       271.7025  VOLUME     =      1330.2831
                                                    Density    =         0.0384
 Ewald error estimate:   0.1406E-03
 ------------------------------------------------------------------------------
