-------------------------------------------------------
          Amber 16 SANDER                              2016
          -------------------------------------------------------

  [-O]verwriting output

File Assignments:

 Here is the input file:

Equilibrate water in NPT
 &cntrl

  nmropt = 0,
  ntx    = 1,       irest  = 0,       ntrx   = 1,      ntxo   = 1,
  ntpr   = 1000,    ntwx   = 1000,    ntwv   = 0,      ntwe   = 1000,
  iwrap  = 0,       ioutfm = 1,

  ntf    = 2,       ntb    = 2,
  cut = 9.0,

  ibelly = 0,       ntr    = 1,
  restraintmask = ':1',
  restraint_wt = 100.0,

  imin   = 0,
  nstlim = 10000,
  nscm   = 1000,
  t      = 0.0,     dt     = 0.002,

  temp0     = 298.0,   tempi  = 0.0,
  ig        = -1,
  ntt       = 3,
  gamma_ln  = 3.0,

  ntp    = 1,       pres0  = 1.0,     comp   = 44.6,
  taup   = 1.0,

  ntc    = 2,       tol    = 0.000001, watnam = 'WAT ',

 &end

--------------------------------------------------------------------------------
   1.  RESOURCE   USE:
--------------------------------------------------------------------------------

 getting new box info from bottom of inpcrd

 NATOM  =    2965 NTYPES =       9 NBONH =    2955 MBONA  =       9
 NTHETH =      25 MTHETA =      11 NPHIH =      43 MPHIA  =      24
 NHPARM =       0 NPARM  =       0 NNB   =    4023 NRES   =     984
 NBONA  =       9 NTHETA =      11 NPHIA =      24 NUMBND =      10
 NUMANG =      16 NPTRA  =      19 NATYP =       9 NPHB   =       1
 IFBOX  =       2 NMXRS  =      10 IFCAP =       0 NEXTRA =       0
 NCOPY  =       0

     BOX TYPE: TRUNCATED OCTAHEDRON
Note: ig = -1. Setting random seed to   859017 based on wallclock time in microseconds
      and disabling the synchronization of random numbers between tasks
      to improve performance.

--------------------------------------------------------------------------------
   2.  CONTROL  DATA  FOR  THE  RUN
--------------------------------------------------------------------------------

default_name

General flags:
     imin    =       0, nmropt  =       0

Nature and format of input:
     ntx     =       1, irest   =       0, ntrx    =       1

Nature and format of output:
     ntxo    =       1, ntpr    =    1000, ntrx    =       1, ntwr    =   10000
     iwrap   =       0, ntwx    =    1000, ntwv    =       0, ntwe    =    1000
     ioutfm  =       1, ntwprt  =       0, idecomp =       0, rbornstat=      0

Potential function:
     ntf     =       2, ntb     =       2, igb     =       0, nsnb    =      25
     ipol    =       0, gbsa    =       0, iesp    =       0
     dielc   =   1.00000, cut     =   9.00000, intdiel =   1.00000

Frozen or restrained atoms:
     ibelly  =       0, ntr     =       1
     restraint_wt = 100.00000

Molecular dynamics:
     nstlim  =     10000, nscm    =         0, nrespa  =         1
     t       =   0.00000, dt      =   0.00200, vlimit  =  20.00000

Langevin dynamics temperature regulation:
     ig      =  859017
     temp0   = 298.00000, tempi   =   0.00000, gamma_ln=   3.00000

Pressure regulation:
     ntp     =       1
     pres0   =   1.00000, comp    =  44.60000, taup    =   1.00000

SHAKE:
     ntc     =       2, jfastw  =       0
     tol     =   0.00000

Ewald parameters:
     verbose =       0, ew_type =       0, nbflag  =       1, use_pme =       1
     vdwmeth =       1, eedmeth =       1, netfrc  =       1
     Box X =   35.998   Box Y =   35.998   Box Z =   35.998
     Alpha =  109.471   Beta  =  109.471   Gamma =  109.471
     NFFT1 =   36       NFFT2 =   36       NFFT3 =   36
     Cutoff=    9.000   Tol   =0.100E-04
     Ewald Coefficient =  0.30768
     Interpolation order =    4

    LOADING THE CONSTRAINED ATOMS AS GROUPS

   5.  REFERENCE ATOM COORDINATES

  defa
     Mask :1; matches     6 atoms

--------------------------------------------------------------------------------
   3.  ATOMIC COORDINATES AND VELOCITIES
--------------------------------------------------------------------------------

defa
 begin time read from input coords =     0.000 ps

 Number of triangulated 3-point waters found:      981

     Sum of charges from parm topology file =  -0.00000000
     Forcing neutrality...

--------------------------------------------------------------------------------
   4.  RESULTS
 NSTEP =        0   TIME(PS) =       0.000  TEMP(K) =     0.00  PRESS = -5579.5
 Etot   =    -12914.2276  EKtot   =         0.0000  EPtot      =    -12914.2276
 BOND   =         0.5804  ANGLE   =         0.6491  DIHED      =        10.4027
 1-4 NB =         2.7659  1-4 EEL =        46.6251  VDWAALS    =      2235.7841
 EELEC  =    -15211.9907  EHBOND  =         0.0000  RESTRAINT  =         0.9558
 EAMBER (non-restraint)  =    -12915.1834
 EKCMT  =         0.0000  VIRIAL  =      4325.8167  VOLUME     =     35908.4751
                                                    Density    =         0.8240
 Ewald error estimate:   0.8259E-04
 ------------------------------------------------------------------------------

      A V E R A G E S   O V E R   10000 S T E P S

 NSTEP =    10000   TIME(PS) =      20.000  TEMP(K) =   293.13  PRESS =  -207.4
 Etot   =     -7686.7344  EKtot   =      1730.0584  EPtot      =     -9416.7928
 BOND   =         3.0507  ANGLE   =         8.0313  DIHED      =        10.9714
 1-4 NB =         3.1777  1-4 EEL =        45.8665  VDWAALS    =      1403.3446
 EELEC  =    -10894.3209  EHBOND  =         0.0000  RESTRAINT  =         3.0858
 EAMBER (non-restraint)  =     -9419.8787
 EKCMT  =       861.3924  VIRIAL  =      1008.1959  VOLUME     =     30641.7125
                                                    Density    =         0.9671
 Ewald error estimate:   0.2045E-03
 ------------------------------------------------------------------------------

      R M S  F L U C T U A T I O N S

 NSTEP =    10000   TIME(PS) =      20.000  TEMP(K) =    26.54  PRESS =   467.2
 Etot   =       328.6714  EKtot   =       156.6430  EPtot      =       179.7369
 BOND   =         1.4974  ANGLE   =         2.1721  DIHED      =         1.1383
 1-4 NB =         0.6841  1-4 EEL =         2.0527  VDWAALS    =        82.9956
 EELEC  =       251.8533  EHBOND  =         0.0000  RESTRAINT  =         1.2364
 EAMBER (non-restraint)  =       178.5005
 EKCMT  =        75.5546  VIRIAL  =       291.8376  VOLUME     =      1267.9443
                                                    Density    =         0.0370
 Ewald error estimate:   0.1579E-03
 ------------------------------------------------------------------------------
