-------------------------------------------------------
          Amber 16 SANDER                              2016
          -------------------------------------------------------

  [-O]verwriting output

File Assignments:

 Here is the input file:

Equilibrate water in NPT
 &cntrl

  nmropt = 0,
  ntx    = 1,       irest  = 0,       ntrx   = 1,      ntxo   = 1,
  ntpr   = 1000,    ntwx   = 1000,    ntwv   = 0,      ntwe   = 1000,
  iwrap  = 0,       ioutfm = 1,

  ntf    = 2,       ntb    = 2,
  cut = 9.0,

  ibelly = 0,       ntr    = 1,
  restraintmask = ':1',
  restraint_wt = 100.0,

  imin   = 0,
  nstlim = 10000,
  nscm   = 1000,
  t      = 0.0,     dt     = 0.002,

  temp0     = 298.0,   tempi  = 0.0,
  ig        = -1,
  ntt       = 3,
  gamma_ln  = 3.0,

  ntp    = 1,       pres0  = 1.0,     comp   = 44.6,
  taup   = 1.0,

  ntc    = 2,       tol    = 0.000001, watnam = 'WAT ',

 &end

--------------------------------------------------------------------------------
   1.  RESOURCE   USE:
--------------------------------------------------------------------------------

 getting new box info from bottom of inpcrd

 NATOM  =    2953 NTYPES =       9 NBONH =    2943 MBONA  =       9
 NTHETH =      25 MTHETA =      11 NPHIH =      43 MPHIA  =      24
 NHPARM =       0 NPARM  =       0 NNB   =    4007 NRES   =     980
 NBONA  =       9 NTHETA =      11 NPHIA =      24 NUMBND =      10
 NUMANG =      16 NPTRA  =      19 NATYP =       9 NPHB   =       1
 IFBOX  =       2 NMXRS  =      10 IFCAP =       0 NEXTRA =       0
 NCOPY  =       0

     BOX TYPE: TRUNCATED OCTAHEDRON
Note: ig = -1. Setting random seed to   821060 based on wallclock time in microseconds
      and disabling the synchronization of random numbers between tasks
      to improve performance.

--------------------------------------------------------------------------------
   2.  CONTROL  DATA  FOR  THE  RUN
--------------------------------------------------------------------------------

default_name

General flags:
     imin    =       0, nmropt  =       0

Nature and format of input:
     ntx     =       1, irest   =       0, ntrx    =       1

Nature and format of output:
     ntxo    =       1, ntpr    =    1000, ntrx    =       1, ntwr    =   10000
     iwrap   =       0, ntwx    =    1000, ntwv    =       0, ntwe    =    1000
     ioutfm  =       1, ntwprt  =       0, idecomp =       0, rbornstat=      0

Potential function:
     ntf     =       2, ntb     =       2, igb     =       0, nsnb    =      25
     ipol    =       0, gbsa    =       0, iesp    =       0
     dielc   =   1.00000, cut     =   9.00000, intdiel =   1.00000

Frozen or restrained atoms:
     ibelly  =       0, ntr     =       1
     restraint_wt = 100.00000

Molecular dynamics:
     nstlim  =     10000, nscm    =         0, nrespa  =         1
     t       =   0.00000, dt      =   0.00200, vlimit  =  20.00000

Langevin dynamics temperature regulation:
     ig      =  821060
     temp0   = 298.00000, tempi   =   0.00000, gamma_ln=   3.00000

Pressure regulation:
     ntp     =       1
     pres0   =   1.00000, comp    =  44.60000, taup    =   1.00000

SHAKE:
     ntc     =       2, jfastw  =       0
     tol     =   0.00000

Ewald parameters:
     verbose =       0, ew_type =       0, nbflag  =       1, use_pme =       1
     vdwmeth =       1, eedmeth =       1, netfrc  =       1
     Box X =   35.984   Box Y =   35.984   Box Z =   35.984
     Alpha =  109.471   Beta  =  109.471   Gamma =  109.471
     NFFT1 =   36       NFFT2 =   36       NFFT3 =   36
     Cutoff=    9.000   Tol   =0.100E-04
     Ewald Coefficient =  0.30768
     Interpolation order =    4

    LOADING THE CONSTRAINED ATOMS AS GROUPS

   5.  REFERENCE ATOM COORDINATES

  defa
     Mask :1; matches     6 atoms

--------------------------------------------------------------------------------
   3.  ATOMIC COORDINATES AND VELOCITIES
--------------------------------------------------------------------------------

defa
 begin time read from input coords =     0.000 ps

 Number of triangulated 3-point waters found:      977

     Sum of charges from parm topology file =  -0.00000000
     Forcing neutrality...

--------------------------------------------------------------------------------
   4.  RESULTS
 NSTEP =        0   TIME(PS) =       0.000  TEMP(K) =     0.00  PRESS = -5530.6
 Etot   =    -12873.7329  EKtot   =         0.0000  EPtot      =    -12873.7329
 BOND   =         0.6850  ANGLE   =         1.8684  DIHED      =         8.9180
 1-4 NB =         3.2009  1-4 EEL =        44.3621  VDWAALS    =      2235.2008
 EELEC  =    -15168.0354  EHBOND  =         0.0000  RESTRAINT  =         0.0673
 EAMBER (non-restraint)  =    -12873.8002
 EKCMT  =         0.0000  VIRIAL  =      4283.2304  VOLUME     =     35868.9825
                                                    Density    =         0.8215
 Ewald error estimate:   0.9409E-04
 ------------------------------------------------------------------------------

      A V E R A G E S   O V E R   10000 S T E P S

 NSTEP =    10000   TIME(PS) =      20.000  TEMP(K) =   292.89  PRESS =  -203.7
 Etot   =     -7652.1967  EKtot   =      1721.6266  EPtot      =     -9373.8232
 BOND   =         3.1938  ANGLE   =         8.8006  DIHED      =        11.4212
 1-4 NB =         3.4986  1-4 EEL =        44.8199  VDWAALS    =      1405.6134
 EELEC  =    -10854.2184  EHBOND  =         0.0000  RESTRAINT  =         3.0476
 EAMBER (non-restraint)  =     -9376.8708
 EKCMT  =       857.3028  VIRIAL  =      1001.5557  VOLUME     =     30690.7768
                                                    Density    =         0.9616
 Ewald error estimate:   0.1891E-03
 ------------------------------------------------------------------------------

      R M S  F L U C T U A T I O N S

 NSTEP =    10000   TIME(PS) =      20.000  TEMP(K) =    26.82  PRESS =   451.4
 Etot   =       331.0888  EKtot   =       157.6407  EPtot      =       180.6217
 BOND   =         1.5081  ANGLE   =         2.3711  DIHED      =         1.2815
 1-4 NB =         0.7760  1-4 EEL =         1.8767  VDWAALS    =        84.1287
 EELEC  =       255.4023  EHBOND  =         0.0000  RESTRAINT  =         1.2757
 EAMBER (non-restraint)  =       179.3460
 EKCMT  =        76.9398  VIRIAL  =       285.5856  VOLUME     =      1237.7935
                                                    Density    =         0.0357
 Ewald error estimate:   0.1458E-03
 ------------------------------------------------------------------------------
