-------------------------------------------------------
          Amber 16 SANDER                              2016
          -------------------------------------------------------

  [-O]verwriting output

File Assignments:

 Here is the input file:

Equilibrate water in NPT
 &cntrl

  nmropt = 0,
  ntx    = 1,       irest  = 0,       ntrx   = 1,      ntxo   = 1,
  ntpr   = 1000,    ntwx   = 1000,    ntwv   = 0,      ntwe   = 1000,
  iwrap  = 0,       ioutfm = 1,

  ntf    = 2,       ntb    = 2,
  cut = 9.0,

  ibelly = 0,       ntr    = 1,
  restraintmask = ':1',
  restraint_wt = 100.0,

  imin   = 0,
  nstlim = 10000,
  nscm   = 1000,
  t      = 0.0,     dt     = 0.002,

  temp0     = 298.0,   tempi  = 0.0,
  ig        = -1,
  ntt       = 3,
  gamma_ln  = 3.0,

  ntp    = 1,       pres0  = 1.0,     comp   = 44.6,
  taup   = 1.0,

  ntc    = 2,       tol    = 0.000001, watnam = 'WAT ',

 &end

--------------------------------------------------------------------------------
   1.  RESOURCE   USE:
--------------------------------------------------------------------------------

 getting new box info from bottom of inpcrd

 NATOM  =    2917 NTYPES =       9 NBONH =    2907 MBONA  =       9
 NTHETH =      25 MTHETA =      11 NPHIH =      43 MPHIA  =      24
 NHPARM =       0 NPARM  =       0 NNB   =    3959 NRES   =     968
 NBONA  =       9 NTHETA =      11 NPHIA =      24 NUMBND =      10
 NUMANG =      16 NPTRA  =      19 NATYP =       9 NPHB   =       1
 IFBOX  =       2 NMXRS  =      10 IFCAP =       0 NEXTRA =       0
 NCOPY  =       0

     BOX TYPE: TRUNCATED OCTAHEDRON
Note: ig = -1. Setting random seed to   171910 based on wallclock time in microseconds
      and disabling the synchronization of random numbers between tasks
      to improve performance.

--------------------------------------------------------------------------------
   2.  CONTROL  DATA  FOR  THE  RUN
--------------------------------------------------------------------------------

default_name

General flags:
     imin    =       0, nmropt  =       0

Nature and format of input:
     ntx     =       1, irest   =       0, ntrx    =       1

Nature and format of output:
     ntxo    =       1, ntpr    =    1000, ntrx    =       1, ntwr    =   10000
     iwrap   =       0, ntwx    =    1000, ntwv    =       0, ntwe    =    1000
     ioutfm  =       1, ntwprt  =       0, idecomp =       0, rbornstat=      0

Potential function:
     ntf     =       2, ntb     =       2, igb     =       0, nsnb    =      25
     ipol    =       0, gbsa    =       0, iesp    =       0
     dielc   =   1.00000, cut     =   9.00000, intdiel =   1.00000

Frozen or restrained atoms:
     ibelly  =       0, ntr     =       1
     restraint_wt = 100.00000

Molecular dynamics:
     nstlim  =     10000, nscm    =         0, nrespa  =         1
     t       =   0.00000, dt      =   0.00200, vlimit  =  20.00000

Langevin dynamics temperature regulation:
     ig      =  171910
     temp0   = 298.00000, tempi   =   0.00000, gamma_ln=   3.00000

Pressure regulation:
     ntp     =       1
     pres0   =   1.00000, comp    =  44.60000, taup    =   1.00000

SHAKE:
     ntc     =       2, jfastw  =       0
     tol     =   0.00000

Ewald parameters:
     verbose =       0, ew_type =       0, nbflag  =       1, use_pme =       1
     vdwmeth =       1, eedmeth =       1, netfrc  =       1
     Box X =   35.783   Box Y =   35.783   Box Z =   35.783
     Alpha =  109.471   Beta  =  109.471   Gamma =  109.471
     NFFT1 =   36       NFFT2 =   36       NFFT3 =   36
     Cutoff=    9.000   Tol   =0.100E-04
     Ewald Coefficient =  0.30768
     Interpolation order =    4

    LOADING THE CONSTRAINED ATOMS AS GROUPS

   5.  REFERENCE ATOM COORDINATES

  defa
     Mask :1; matches     6 atoms

--------------------------------------------------------------------------------
   3.  ATOMIC COORDINATES AND VELOCITIES
--------------------------------------------------------------------------------

defa
 begin time read from input coords =     0.000 ps

 Number of triangulated 3-point waters found:      965

     Sum of charges from parm topology file =  -0.00000000
     Forcing neutrality...

--------------------------------------------------------------------------------
   4.  RESULTS
 NSTEP =        0   TIME(PS) =       0.000  TEMP(K) =     0.00  PRESS = -5745.4
 Etot   =    -12717.3247  EKtot   =         0.0000  EPtot      =    -12717.3247
 BOND   =         0.7661  ANGLE   =         3.6962  DIHED      =        13.2544
 1-4 NB =         3.1264  1-4 EEL =        47.1475  VDWAALS    =      2185.9928
 EELEC  =    -14971.7544  EHBOND  =         0.0000  RESTRAINT  =         0.4464
 EAMBER (non-restraint)  =    -12717.7710
 EKCMT  =         0.0000  VIRIAL  =      4375.2113  VOLUME     =     35269.6018
                                                    Density    =         0.8253
 Ewald error estimate:   0.1683E-03
 ------------------------------------------------------------------------------

      A V E R A G E S   O V E R   10000 S T E P S

 NSTEP =    10000   TIME(PS) =      20.000  TEMP(K) =   292.23  PRESS =  -203.7
 Etot   =     -7578.6369  EKtot   =      1696.8386  EPtot      =     -9275.4755
 BOND   =         3.3136  ANGLE   =         9.8861  DIHED      =        11.1871
 1-4 NB =         2.8329  1-4 EEL =        44.8915  VDWAALS    =      1387.5621
 EELEC  =    -10738.3609  EHBOND  =         0.0000  RESTRAINT  =         3.2121
 EAMBER (non-restraint)  =     -9278.6875
 EKCMT  =       844.6214  VIRIAL  =       986.4611  VOLUME     =     30130.7334
                                                    Density    =         0.9675
 Ewald error estimate:   0.2007E-03
 ------------------------------------------------------------------------------

      R M S  F L U C T U A T I O N S

 NSTEP =    10000   TIME(PS) =      20.000  TEMP(K) =    25.94  PRESS =   486.8
 Etot   =       319.5398  EKtot   =       150.6327  EPtot      =       175.1213
 BOND   =         1.5430  ANGLE   =         2.4881  DIHED      =         1.3363
 1-4 NB =         0.7036  1-4 EEL =         2.0460  VDWAALS    =        82.5034
 EELEC  =       247.2267  EHBOND  =         0.0000  RESTRAINT  =         1.3223
 EAMBER (non-restraint)  =       173.7990
 EKCMT  =        73.8614  VIRIAL  =       301.2624  VOLUME     =      1195.6324
                                                    Density    =         0.0355
 Ewald error estimate:   0.1465E-03
 ------------------------------------------------------------------------------
