-------------------------------------------------------
          Amber 16 SANDER                              2016
          -------------------------------------------------------

  [-O]verwriting output

File Assignments:

 Here is the input file:

Equilibrate water in NPT
 &cntrl

  nmropt = 0,
  ntx    = 1,       irest  = 0,       ntrx   = 1,      ntxo   = 1,
  ntpr   = 1000,    ntwx   = 1000,    ntwv   = 0,      ntwe   = 1000,
  iwrap  = 0,       ioutfm = 1,

  ntf    = 2,       ntb    = 2,
  cut = 9.0,

  ibelly = 0,       ntr    = 1,
  restraintmask = ':1',
  restraint_wt = 100.0,

  imin   = 0,
  nstlim = 10000,
  nscm   = 1000,
  t      = 0.0,     dt     = 0.002,

  temp0     = 298.0,   tempi  = 0.0,
  ig        = -1,
  ntt       = 3,
  gamma_ln  = 3.0,

  ntp    = 1,       pres0  = 1.0,     comp   = 44.6,
  taup   = 1.0,

  ntc    = 2,       tol    = 0.000001, watnam = 'WAT ',

 &end

--------------------------------------------------------------------------------
   1.  RESOURCE   USE:
--------------------------------------------------------------------------------

 getting new box info from bottom of inpcrd

 NATOM  =    2848 NTYPES =       9 NBONH =    2838 MBONA  =       9
 NTHETH =      25 MTHETA =      11 NPHIH =      43 MPHIA  =      24
 NHPARM =       0 NPARM  =       0 NNB   =    3867 NRES   =     945
 NBONA  =       9 NTHETA =      11 NPHIA =      24 NUMBND =      10
 NUMANG =      16 NPTRA  =      19 NATYP =       9 NPHB   =       1
 IFBOX  =       2 NMXRS  =      10 IFCAP =       0 NEXTRA =       0
 NCOPY  =       0

     BOX TYPE: TRUNCATED OCTAHEDRON
Note: ig = -1. Setting random seed to   111859 based on wallclock time in microseconds
      and disabling the synchronization of random numbers between tasks
      to improve performance.

--------------------------------------------------------------------------------
   2.  CONTROL  DATA  FOR  THE  RUN
--------------------------------------------------------------------------------

default_name

General flags:
     imin    =       0, nmropt  =       0

Nature and format of input:
     ntx     =       1, irest   =       0, ntrx    =       1

Nature and format of output:
     ntxo    =       1, ntpr    =    1000, ntrx    =       1, ntwr    =   10000
     iwrap   =       0, ntwx    =    1000, ntwv    =       0, ntwe    =    1000
     ioutfm  =       1, ntwprt  =       0, idecomp =       0, rbornstat=      0

Potential function:
     ntf     =       2, ntb     =       2, igb     =       0, nsnb    =      25
     ipol    =       0, gbsa    =       0, iesp    =       0
     dielc   =   1.00000, cut     =   9.00000, intdiel =   1.00000

Frozen or restrained atoms:
     ibelly  =       0, ntr     =       1
     restraint_wt = 100.00000

Molecular dynamics:
     nstlim  =     10000, nscm    =         0, nrespa  =         1
     t       =   0.00000, dt      =   0.00200, vlimit  =  20.00000

Langevin dynamics temperature regulation:
     ig      =  111859
     temp0   = 298.00000, tempi   =   0.00000, gamma_ln=   3.00000

Pressure regulation:
     ntp     =       1
     pres0   =   1.00000, comp    =  44.60000, taup    =   1.00000

SHAKE:
     ntc     =       2, jfastw  =       0
     tol     =   0.00000

Ewald parameters:
     verbose =       0, ew_type =       0, nbflag  =       1, use_pme =       1
     vdwmeth =       1, eedmeth =       1, netfrc  =       1
     Box X =   35.484   Box Y =   35.484   Box Z =   35.484
     Alpha =  109.471   Beta  =  109.471   Gamma =  109.471
     NFFT1 =   36       NFFT2 =   36       NFFT3 =   36
     Cutoff=    9.000   Tol   =0.100E-04
     Ewald Coefficient =  0.30768
     Interpolation order =    4

    LOADING THE CONSTRAINED ATOMS AS GROUPS

   5.  REFERENCE ATOM COORDINATES

  defa
     Mask :1; matches     6 atoms

--------------------------------------------------------------------------------
   3.  ATOMIC COORDINATES AND VELOCITIES
--------------------------------------------------------------------------------

defa
 begin time read from input coords =     0.000 ps

 Number of triangulated 3-point waters found:      942

     Sum of charges from parm topology file =  -0.00000000
     Forcing neutrality...

--------------------------------------------------------------------------------
   4.  RESULTS
 NSTEP =        0   TIME(PS) =       0.000  TEMP(K) =     0.00  PRESS = -5045.3
 Etot   =    -12462.1750  EKtot   =         0.0000  EPtot      =    -12462.1750
 BOND   =         0.5311  ANGLE   =         2.0211  DIHED      =         9.0253
 1-4 NB =         3.3749  1-4 EEL =        44.3824  VDWAALS    =      2247.9834
 EELEC  =    -14769.7325  EHBOND  =         0.0000  RESTRAINT  =         0.2393
 EAMBER (non-restraint)  =    -12462.4143
 EKCMT  =         0.0000  VIRIAL  =      3746.6989  VOLUME     =     34394.3688
                                                    Density    =         0.8263
 Ewald error estimate:   0.2353E-03
 ------------------------------------------------------------------------------

      A V E R A G E S   O V E R   10000 S T E P S

 NSTEP =    10000   TIME(PS) =      20.000  TEMP(K) =   294.10  PRESS =  -190.5
 Etot   =     -7361.5856  EKtot   =      1667.4093  EPtot      =     -9028.9949
 BOND   =         3.2328  ANGLE   =         8.0828  DIHED      =        11.0910
 1-4 NB =         3.1762  1-4 EEL =        45.8859  VDWAALS    =      1356.9673
 EELEC  =    -10460.5441  EHBOND  =         0.0000  RESTRAINT  =         3.1132
 EAMBER (non-restraint)  =     -9032.1081
 EKCMT  =       830.6970  VIRIAL  =       960.8102  VOLUME     =     29673.4205
                                                    Density    =         0.9593
 Ewald error estimate:   0.1947E-03
 ------------------------------------------------------------------------------

      R M S  F L U C T U A T I O N S

 NSTEP =    10000   TIME(PS) =      20.000  TEMP(K) =    26.43  PRESS =   428.8
 Etot   =       320.1383  EKtot   =       149.8481  EPtot      =       179.4002
 BOND   =         1.5010  ANGLE   =         2.3691  DIHED      =         1.1367
 1-4 NB =         0.6966  1-4 EEL =         2.1104  VDWAALS    =        88.0008
 EELEC  =       257.6116  EHBOND  =         0.0000  RESTRAINT  =         1.2960
 EAMBER (non-restraint)  =       178.1042
 EKCMT  =        74.0028  VIRIAL  =       260.3286  VOLUME     =      1219.9819
                                                    Density    =         0.0365
 Ewald error estimate:   0.1469E-03
 ------------------------------------------------------------------------------
