-------------------------------------------------------
          Amber 16 SANDER                              2016
          -------------------------------------------------------

  [-O]verwriting output

File Assignments:

 Here is the input file:

Equilibrate water in NPT
 &cntrl

  nmropt = 0,
  ntx    = 1,       irest  = 0,       ntrx   = 1,      ntxo   = 1,
  ntpr   = 1000,    ntwx   = 1000,    ntwv   = 0,      ntwe   = 1000,
  iwrap  = 0,       ioutfm = 1,

  ntf    = 2,       ntb    = 2,
  cut = 9.0,

  ibelly = 0,       ntr    = 1,
  restraintmask = ':1',
  restraint_wt = 100.0,

  imin   = 0,
  nstlim = 10000,
  nscm   = 1000,
  t      = 0.0,     dt     = 0.002,

  temp0     = 298.0,   tempi  = 0.0,
  ig        = -1,
  ntt       = 3,
  gamma_ln  = 3.0,

  ntp    = 1,       pres0  = 1.0,     comp   = 44.6,
  taup   = 1.0,

  ntc    = 2,       tol    = 0.000001, watnam = 'WAT ',

 &end

--------------------------------------------------------------------------------
   1.  RESOURCE   USE:
--------------------------------------------------------------------------------

 getting new box info from bottom of inpcrd

 NATOM  =    3058 NTYPES =       9 NBONH =    3048 MBONA  =       9
 NTHETH =      25 MTHETA =      11 NPHIH =      43 MPHIA  =      24
 NHPARM =       0 NPARM  =       0 NNB   =    4147 NRES   =    1015
 NBONA  =       9 NTHETA =      11 NPHIA =      24 NUMBND =      10
 NUMANG =      16 NPTRA  =      19 NATYP =       9 NPHB   =       1
 IFBOX  =       2 NMXRS  =      10 IFCAP =       0 NEXTRA =       0
 NCOPY  =       0

     BOX TYPE: TRUNCATED OCTAHEDRON
Note: ig = -1. Setting random seed to   740799 based on wallclock time in microseconds
      and disabling the synchronization of random numbers between tasks
      to improve performance.

--------------------------------------------------------------------------------
   2.  CONTROL  DATA  FOR  THE  RUN
--------------------------------------------------------------------------------

default_name

General flags:
     imin    =       0, nmropt  =       0

Nature and format of input:
     ntx     =       1, irest   =       0, ntrx    =       1

Nature and format of output:
     ntxo    =       1, ntpr    =    1000, ntrx    =       1, ntwr    =   10000
     iwrap   =       0, ntwx    =    1000, ntwv    =       0, ntwe    =    1000
     ioutfm  =       1, ntwprt  =       0, idecomp =       0, rbornstat=      0

Potential function:
     ntf     =       2, ntb     =       2, igb     =       0, nsnb    =      25
     ipol    =       0, gbsa    =       0, iesp    =       0
     dielc   =   1.00000, cut     =   9.00000, intdiel =   1.00000

Frozen or restrained atoms:
     ibelly  =       0, ntr     =       1
     restraint_wt = 100.00000

Molecular dynamics:
     nstlim  =     10000, nscm    =         0, nrespa  =         1
     t       =   0.00000, dt      =   0.00200, vlimit  =  20.00000

Langevin dynamics temperature regulation:
     ig      =  740799
     temp0   = 298.00000, tempi   =   0.00000, gamma_ln=   3.00000

Pressure regulation:
     ntp     =       1
     pres0   =   1.00000, comp    =  44.60000, taup    =   1.00000

SHAKE:
     ntc     =       2, jfastw  =       0
     tol     =   0.00000

Ewald parameters:
     verbose =       0, ew_type =       0, nbflag  =       1, use_pme =       1
     vdwmeth =       1, eedmeth =       1, netfrc  =       1
     Box X =   36.271   Box Y =   36.271   Box Z =   36.271
     Alpha =  109.471   Beta  =  109.471   Gamma =  109.471
     NFFT1 =   36       NFFT2 =   36       NFFT3 =   36
     Cutoff=    9.000   Tol   =0.100E-04
     Ewald Coefficient =  0.30768
     Interpolation order =    4

    LOADING THE CONSTRAINED ATOMS AS GROUPS

   5.  REFERENCE ATOM COORDINATES

  defa
     Mask :1; matches     6 atoms

--------------------------------------------------------------------------------
   3.  ATOMIC COORDINATES AND VELOCITIES
--------------------------------------------------------------------------------

defa
 begin time read from input coords =     0.000 ps

 Number of triangulated 3-point waters found:     1012

     Sum of charges from parm topology file =  -0.00000000
     Forcing neutrality...

--------------------------------------------------------------------------------
   4.  RESULTS
 NSTEP =        0   TIME(PS) =       0.000  TEMP(K) =     0.00  PRESS = -5452.8
 Etot   =    -13347.5257  EKtot   =         0.0000  EPtot      =    -13347.5257
 BOND   =         0.7850  ANGLE   =         2.6451  DIHED      =        10.0373
 1-4 NB =         2.8445  1-4 EEL =        45.6877  VDWAALS    =      2341.2082
 EELEC  =    -15750.9251  EHBOND  =         0.0000  RESTRAINT  =         0.1915
 EAMBER (non-restraint)  =    -13347.7173
 EKCMT  =         0.0000  VIRIAL  =      4324.5931  VOLUME     =     36732.2910
                                                    Density    =         0.8307
 Ewald error estimate:   0.6147E-04
 ------------------------------------------------------------------------------

      A V E R A G E S   O V E R   10000 S T E P S

 NSTEP =    10000   TIME(PS) =      20.000  TEMP(K) =   291.83  PRESS =  -197.3
 Etot   =     -7959.7463  EKtot   =      1776.3316  EPtot      =     -9736.0778
 BOND   =         3.4333  ANGLE   =         9.6043  DIHED      =        11.5128
 1-4 NB =         3.0170  1-4 EEL =        45.3670  VDWAALS    =      1460.1827
 EELEC  =    -11272.2349  EHBOND  =         0.0000  RESTRAINT  =         3.0398
 EAMBER (non-restraint)  =     -9739.1176
 EKCMT  =       884.5304  VIRIAL  =      1028.0091  VOLUME     =     31594.2579
                                                    Density    =         0.9674
 Ewald error estimate:   0.1775E-03
 ------------------------------------------------------------------------------

      R M S  F L U C T U A T I O N S

 NSTEP =    10000   TIME(PS) =      20.000  TEMP(K) =    25.69  PRESS =   434.4
 Etot   =       330.4708  EKtot   =       156.3692  EPtot      =       180.6590
 BOND   =         1.6319  ANGLE   =         2.4018  DIHED      =         1.2474
 1-4 NB =         0.7357  1-4 EEL =         1.7852  VDWAALS    =        90.0879
 EELEC  =       260.0305  EHBOND  =         0.0000  RESTRAINT  =         1.2005
 EAMBER (non-restraint)  =       179.4584
 EKCMT  =        77.5989  VIRIAL  =       278.6926  VOLUME     =      1306.8941
                                                    Density    =         0.0371
 Ewald error estimate:   0.1331E-03
 ------------------------------------------------------------------------------
