-------------------------------------------------------
          Amber 16 SANDER                              2016
          -------------------------------------------------------

  [-O]verwriting output

File Assignments:

 Here is the input file:

Equilibrate water in NPT
 &cntrl

  nmropt = 0,
  ntx    = 1,       irest  = 0,       ntrx   = 1,      ntxo   = 1,
  ntpr   = 1000,    ntwx   = 1000,    ntwv   = 0,      ntwe   = 1000,
  iwrap  = 0,       ioutfm = 1,

  ntf    = 2,       ntb    = 2,
  cut = 9.0,

  ibelly = 0,       ntr    = 1,
  restraintmask = ':1',
  restraint_wt = 100.0,

  imin   = 0,
  nstlim = 10000,
  nscm   = 1000,
  t      = 0.0,     dt     = 0.002,

  temp0     = 298.0,   tempi  = 0.0,
  ig        = -1,
  ntt       = 3,
  gamma_ln  = 3.0,

  ntp    = 1,       pres0  = 1.0,     comp   = 44.6,
  taup   = 1.0,

  ntc    = 2,       tol    = 0.000001, watnam = 'WAT ',

 &end

--------------------------------------------------------------------------------
   1.  RESOURCE   USE:
--------------------------------------------------------------------------------

 getting new box info from bottom of inpcrd

 NATOM  =    2965 NTYPES =       9 NBONH =    2955 MBONA  =       9
 NTHETH =      25 MTHETA =      11 NPHIH =      43 MPHIA  =      24
 NHPARM =       0 NPARM  =       0 NNB   =    4023 NRES   =     984
 NBONA  =       9 NTHETA =      11 NPHIA =      24 NUMBND =      10
 NUMANG =      16 NPTRA  =      19 NATYP =       9 NPHB   =       1
 IFBOX  =       2 NMXRS  =      10 IFCAP =       0 NEXTRA =       0
 NCOPY  =       0

     BOX TYPE: TRUNCATED OCTAHEDRON
Note: ig = -1. Setting random seed to   362623 based on wallclock time in microseconds
      and disabling the synchronization of random numbers between tasks
      to improve performance.

--------------------------------------------------------------------------------
   2.  CONTROL  DATA  FOR  THE  RUN
--------------------------------------------------------------------------------

default_name

General flags:
     imin    =       0, nmropt  =       0

Nature and format of input:
     ntx     =       1, irest   =       0, ntrx    =       1

Nature and format of output:
     ntxo    =       1, ntpr    =    1000, ntrx    =       1, ntwr    =   10000
     iwrap   =       0, ntwx    =    1000, ntwv    =       0, ntwe    =    1000
     ioutfm  =       1, ntwprt  =       0, idecomp =       0, rbornstat=      0

Potential function:
     ntf     =       2, ntb     =       2, igb     =       0, nsnb    =      25
     ipol    =       0, gbsa    =       0, iesp    =       0
     dielc   =   1.00000, cut     =   9.00000, intdiel =   1.00000

Frozen or restrained atoms:
     ibelly  =       0, ntr     =       1
     restraint_wt = 100.00000

Molecular dynamics:
     nstlim  =     10000, nscm    =         0, nrespa  =         1
     t       =   0.00000, dt      =   0.00200, vlimit  =  20.00000

Langevin dynamics temperature regulation:
     ig      =  362623
     temp0   = 298.00000, tempi   =   0.00000, gamma_ln=   3.00000

Pressure regulation:
     ntp     =       1
     pres0   =   1.00000, comp    =  44.60000, taup    =   1.00000

SHAKE:
     ntc     =       2, jfastw  =       0
     tol     =   0.00000

Ewald parameters:
     verbose =       0, ew_type =       0, nbflag  =       1, use_pme =       1
     vdwmeth =       1, eedmeth =       1, netfrc  =       1
     Box X =   36.004   Box Y =   36.004   Box Z =   36.004
     Alpha =  109.471   Beta  =  109.471   Gamma =  109.471
     NFFT1 =   36       NFFT2 =   36       NFFT3 =   36
     Cutoff=    9.000   Tol   =0.100E-04
     Ewald Coefficient =  0.30768
     Interpolation order =    4

    LOADING THE CONSTRAINED ATOMS AS GROUPS

   5.  REFERENCE ATOM COORDINATES

  defa
     Mask :1; matches     6 atoms

--------------------------------------------------------------------------------
   3.  ATOMIC COORDINATES AND VELOCITIES
--------------------------------------------------------------------------------

defa
 begin time read from input coords =     0.000 ps

 Number of triangulated 3-point waters found:      981

     Sum of charges from parm topology file =  -0.00000000
     Forcing neutrality...

--------------------------------------------------------------------------------
   4.  RESULTS
 NSTEP =        0   TIME(PS) =       0.000  TEMP(K) =     0.00  PRESS = -5399.9
 Etot   =    -12968.6416  EKtot   =         0.0000  EPtot      =    -12968.6416
 BOND   =         0.9179  ANGLE   =         1.9673  DIHED      =        13.9410
 1-4 NB =         2.5536  1-4 EEL =        45.2138  VDWAALS    =      2279.0983
 EELEC  =    -15312.6408  EHBOND  =         0.0000  RESTRAINT  =         0.3074
 EAMBER (non-restraint)  =    -12968.9490
 EKCMT  =         0.0000  VIRIAL  =      4188.7594  VOLUME     =     35926.8554
                                                    Density    =         0.8236
 Ewald error estimate:   0.1273E-03
 ------------------------------------------------------------------------------

      A V E R A G E S   O V E R   10000 S T E P S

 NSTEP =    10000   TIME(PS) =      20.000  TEMP(K) =   293.52  PRESS =  -209.3
 Etot   =     -7681.6374  EKtot   =      1732.3602  EPtot      =     -9413.9976
 BOND   =         3.1800  ANGLE   =         8.6328  DIHED      =        11.6336
 1-4 NB =         3.5968  1-4 EEL =        44.9843  VDWAALS    =      1404.0402
 EELEC  =    -10893.1467  EHBOND  =         0.0000  RESTRAINT  =         3.0813
 EAMBER (non-restraint)  =     -9417.0789
 EKCMT  =       861.2471  VIRIAL  =      1009.3496  VOLUME     =     30709.5342
                                                    Density    =         0.9652
 Ewald error estimate:   0.1881E-03
 ------------------------------------------------------------------------------

      R M S  F L U C T U A T I O N S

 NSTEP =    10000   TIME(PS) =      20.000  TEMP(K) =    26.91  PRESS =   451.5
 Etot   =       334.8934  EKtot   =       158.8425  EPtot      =       182.7008
 BOND   =         1.5194  ANGLE   =         2.2692  DIHED      =         1.3935
 1-4 NB =         0.7847  1-4 EEL =         1.9004  VDWAALS    =        91.9529
 EELEC  =       263.9870  EHBOND  =         0.0000  RESTRAINT  =         1.2690
 EAMBER (non-restraint)  =       181.4318
 EKCMT  =        77.2584  VIRIAL  =       283.8631  VOLUME     =      1335.7110
                                                    Density    =         0.0389
 Ewald error estimate:   0.1439E-03
 ------------------------------------------------------------------------------
