-------------------------------------------------------
          Amber 16 SANDER                              2016
          -------------------------------------------------------

  [-O]verwriting output

File Assignments:

 Here is the input file:

Equilibrate water in NPT
 &cntrl

  nmropt = 0,
  ntx    = 1,       irest  = 0,       ntrx   = 1,      ntxo   = 1,
  ntpr   = 1000,    ntwx   = 1000,    ntwv   = 0,      ntwe   = 1000,
  iwrap  = 0,       ioutfm = 1,

  ntf    = 2,       ntb    = 2,
  cut = 9.0,

  ibelly = 0,       ntr    = 1,
  restraintmask = ':1',
  restraint_wt = 100.0,

  imin   = 0,
  nstlim = 10000,
  nscm   = 1000,
  t      = 0.0,     dt     = 0.002,

  temp0     = 298.0,   tempi  = 0.0,
  ig        = -1,
  ntt       = 3,
  gamma_ln  = 3.0,

  ntp    = 1,       pres0  = 1.0,     comp   = 44.6,
  taup   = 1.0,

  ntc    = 2,       tol    = 0.000001, watnam = 'WAT ',

 &end

--------------------------------------------------------------------------------
   1.  RESOURCE   USE:
--------------------------------------------------------------------------------

 getting new box info from bottom of inpcrd

 NATOM  =    3130 NTYPES =       9 NBONH =    3120 MBONA  =       9
 NTHETH =      25 MTHETA =      11 NPHIH =      43 MPHIA  =      24
 NHPARM =       0 NPARM  =       0 NNB   =    4243 NRES   =    1039
 NBONA  =       9 NTHETA =      11 NPHIA =      24 NUMBND =      10
 NUMANG =      16 NPTRA  =      19 NATYP =       9 NPHB   =       1
 IFBOX  =       2 NMXRS  =      10 IFCAP =       0 NEXTRA =       0
 NCOPY  =       0

     BOX TYPE: TRUNCATED OCTAHEDRON
Note: ig = -1. Setting random seed to   590989 based on wallclock time in microseconds
      and disabling the synchronization of random numbers between tasks
      to improve performance.

--------------------------------------------------------------------------------
   2.  CONTROL  DATA  FOR  THE  RUN
--------------------------------------------------------------------------------

default_name

General flags:
     imin    =       0, nmropt  =       0

Nature and format of input:
     ntx     =       1, irest   =       0, ntrx    =       1

Nature and format of output:
     ntxo    =       1, ntpr    =    1000, ntrx    =       1, ntwr    =   10000
     iwrap   =       0, ntwx    =    1000, ntwv    =       0, ntwe    =    1000
     ioutfm  =       1, ntwprt  =       0, idecomp =       0, rbornstat=      0

Potential function:
     ntf     =       2, ntb     =       2, igb     =       0, nsnb    =      25
     ipol    =       0, gbsa    =       0, iesp    =       0
     dielc   =   1.00000, cut     =   9.00000, intdiel =   1.00000

Frozen or restrained atoms:
     ibelly  =       0, ntr     =       1
     restraint_wt = 100.00000

Molecular dynamics:
     nstlim  =     10000, nscm    =         0, nrespa  =         1
     t       =   0.00000, dt      =   0.00200, vlimit  =  20.00000

Langevin dynamics temperature regulation:
     ig      =  590989
     temp0   = 298.00000, tempi   =   0.00000, gamma_ln=   3.00000

Pressure regulation:
     ntp     =       1
     pres0   =   1.00000, comp    =  44.60000, taup    =   1.00000

SHAKE:
     ntc     =       2, jfastw  =       0
     tol     =   0.00000

Ewald parameters:
     verbose =       0, ew_type =       0, nbflag  =       1, use_pme =       1
     vdwmeth =       1, eedmeth =       1, netfrc  =       1
     Box X =   36.522   Box Y =   36.522   Box Z =   36.522
     Alpha =  109.471   Beta  =  109.471   Gamma =  109.471
     NFFT1 =   36       NFFT2 =   36       NFFT3 =   36
     Cutoff=    9.000   Tol   =0.100E-04
     Ewald Coefficient =  0.30768
     Interpolation order =    4

    LOADING THE CONSTRAINED ATOMS AS GROUPS

   5.  REFERENCE ATOM COORDINATES

  defa
     Mask :1; matches     6 atoms

--------------------------------------------------------------------------------
   3.  ATOMIC COORDINATES AND VELOCITIES
--------------------------------------------------------------------------------

defa
 begin time read from input coords =     0.000 ps

 Number of triangulated 3-point waters found:     1036

     Sum of charges from parm topology file =  -0.00000000
     Forcing neutrality...

--------------------------------------------------------------------------------
   4.  RESULTS
 NSTEP =        0   TIME(PS) =       0.000  TEMP(K) =     0.00  PRESS = -5171.6
 Etot   =    -13665.1825  EKtot   =         0.0000  EPtot      =    -13665.1825
 BOND   =         0.7200  ANGLE   =         1.5091  DIHED      =        10.9875
 1-4 NB =         3.1299  1-4 EEL =        46.2748  VDWAALS    =      2431.5639
 EELEC  =    -16159.5066  EHBOND  =         0.0000  RESTRAINT  =         0.1390
 EAMBER (non-restraint)  =    -13665.3215
 EKCMT  =         0.0000  VIRIAL  =      4187.3079  VOLUME     =     37500.1753
                                                    Density    =         0.8329
 Ewald error estimate:   0.1879E-03
 ------------------------------------------------------------------------------

      A V E R A G E S   O V E R   10000 S T E P S

 NSTEP =    10000   TIME(PS) =      20.000  TEMP(K) =   293.61  PRESS =  -184.8
 Etot   =     -8123.3938  EKtot   =      1829.1604  EPtot      =     -9952.5542
 BOND   =         3.1275  ANGLE   =         8.3894  DIHED      =        11.6395
 1-4 NB =         3.1939  1-4 EEL =        46.9126  VDWAALS    =      1495.2392
 EELEC  =    -11524.2785  EHBOND  =         0.0000  RESTRAINT  =         3.2221
 EAMBER (non-restraint)  =     -9955.7763
 EKCMT  =       910.8626  VIRIAL  =      1048.7938  VOLUME     =     32400.0231
                                                    Density    =         0.9652
 Ewald error estimate:   0.1862E-03
 ------------------------------------------------------------------------------

      R M S  F L U C T U A T I O N S

 NSTEP =    10000   TIME(PS) =      20.000  TEMP(K) =    26.61  PRESS =   450.5
 Etot   =       346.4623  EKtot   =       165.7600  EPtot      =       187.1050
 BOND   =         1.4639  ANGLE   =         2.2761  DIHED      =         1.2812
 1-4 NB =         0.7011  1-4 EEL =         1.9873  VDWAALS    =        89.8256
 EELEC  =       267.0908  EHBOND  =         0.0000  RESTRAINT  =         1.3623
 EAMBER (non-restraint)  =       185.7428
 EKCMT  =        80.2443  VIRIAL  =       297.1258  VOLUME     =      1175.2987
                                                    Density    =         0.0324
 Ewald error estimate:   0.1453E-03
 ------------------------------------------------------------------------------
