-------------------------------------------------------
          Amber 16 SANDER                              2016
          -------------------------------------------------------

  [-O]verwriting output

File Assignments:

 Here is the input file:

Equilibrate water in NPT
 &cntrl

  nmropt = 0,
  ntx    = 1,       irest  = 0,       ntrx   = 1,      ntxo   = 1,
  ntpr   = 1000,    ntwx   = 1000,    ntwv   = 0,      ntwe   = 1000,
  iwrap  = 0,       ioutfm = 1,

  ntf    = 2,       ntb    = 2,
  cut = 9.0,

  ibelly = 0,       ntr    = 1,
  restraintmask = ':1',
  restraint_wt = 100.0,

  imin   = 0,
  nstlim = 10000,
  nscm   = 1000,
  t      = 0.0,     dt     = 0.002,

  temp0     = 298.0,   tempi  = 0.0,
  ig        = -1,
  ntt       = 3,
  gamma_ln  = 3.0,

  ntp    = 1,       pres0  = 1.0,     comp   = 44.6,
  taup   = 1.0,

  ntc    = 2,       tol    = 0.000001, watnam = 'WAT ',

 &end

--------------------------------------------------------------------------------
   1.  RESOURCE   USE:
--------------------------------------------------------------------------------

 getting new box info from bottom of inpcrd

 NATOM  =    2950 NTYPES =       9 NBONH =    2940 MBONA  =       9
 NTHETH =      25 MTHETA =      11 NPHIH =      43 MPHIA  =      24
 NHPARM =       0 NPARM  =       0 NNB   =    4003 NRES   =     979
 NBONA  =       9 NTHETA =      11 NPHIA =      24 NUMBND =      10
 NUMANG =      16 NPTRA  =      19 NATYP =       9 NPHB   =       1
 IFBOX  =       2 NMXRS  =      10 IFCAP =       0 NEXTRA =       0
 NCOPY  =       0

     BOX TYPE: TRUNCATED OCTAHEDRON
Note: ig = -1. Setting random seed to   723933 based on wallclock time in microseconds
      and disabling the synchronization of random numbers between tasks
      to improve performance.

--------------------------------------------------------------------------------
   2.  CONTROL  DATA  FOR  THE  RUN
--------------------------------------------------------------------------------

default_name

General flags:
     imin    =       0, nmropt  =       0

Nature and format of input:
     ntx     =       1, irest   =       0, ntrx    =       1

Nature and format of output:
     ntxo    =       1, ntpr    =    1000, ntrx    =       1, ntwr    =   10000
     iwrap   =       0, ntwx    =    1000, ntwv    =       0, ntwe    =    1000
     ioutfm  =       1, ntwprt  =       0, idecomp =       0, rbornstat=      0

Potential function:
     ntf     =       2, ntb     =       2, igb     =       0, nsnb    =      25
     ipol    =       0, gbsa    =       0, iesp    =       0
     dielc   =   1.00000, cut     =   9.00000, intdiel =   1.00000

Frozen or restrained atoms:
     ibelly  =       0, ntr     =       1
     restraint_wt = 100.00000

Molecular dynamics:
     nstlim  =     10000, nscm    =         0, nrespa  =         1
     t       =   0.00000, dt      =   0.00200, vlimit  =  20.00000

Langevin dynamics temperature regulation:
     ig      =  723933
     temp0   = 298.00000, tempi   =   0.00000, gamma_ln=   3.00000

Pressure regulation:
     ntp     =       1
     pres0   =   1.00000, comp    =  44.60000, taup    =   1.00000

SHAKE:
     ntc     =       2, jfastw  =       0
     tol     =   0.00000

Ewald parameters:
     verbose =       0, ew_type =       0, nbflag  =       1, use_pme =       1
     vdwmeth =       1, eedmeth =       1, netfrc  =       1
     Box X =   35.897   Box Y =   35.897   Box Z =   35.897
     Alpha =  109.471   Beta  =  109.471   Gamma =  109.471
     NFFT1 =   36       NFFT2 =   36       NFFT3 =   36
     Cutoff=    9.000   Tol   =0.100E-04
     Ewald Coefficient =  0.30768
     Interpolation order =    4

    LOADING THE CONSTRAINED ATOMS AS GROUPS

   5.  REFERENCE ATOM COORDINATES

  defa
     Mask :1; matches     6 atoms

--------------------------------------------------------------------------------
   3.  ATOMIC COORDINATES AND VELOCITIES
--------------------------------------------------------------------------------

defa
 begin time read from input coords =     0.000 ps

 Number of triangulated 3-point waters found:      976

     Sum of charges from parm topology file =  -0.00000000
     Forcing neutrality...

--------------------------------------------------------------------------------
   4.  RESULTS
 NSTEP =        0   TIME(PS) =       0.000  TEMP(K) =     0.00  PRESS = -5527.2
 Etot   =    -12868.7133  EKtot   =         0.0000  EPtot      =    -12868.7133
 BOND   =         0.3577  ANGLE   =         0.8322  DIHED      =        11.0657
 1-4 NB =         2.3621  1-4 EEL =        46.5538  VDWAALS    =      2236.7500
 EELEC  =    -15166.7788  EHBOND  =         0.0000  RESTRAINT  =         0.1440
 EAMBER (non-restraint)  =    -12868.8573
 EKCMT  =         0.0000  VIRIAL  =      4249.3694  VOLUME     =     35607.3926
                                                    Density    =         0.8267
 Ewald error estimate:   0.3180E-04
 ------------------------------------------------------------------------------

      A V E R A G E S   O V E R   10000 S T E P S

 NSTEP =    10000   TIME(PS) =      20.000  TEMP(K) =   291.89  PRESS =  -193.8
 Etot   =     -7658.3932  EKtot   =      1714.0347  EPtot      =     -9372.4279
 BOND   =         2.9837  ANGLE   =         7.9354  DIHED      =        11.7166
 1-4 NB =         3.0152  1-4 EEL =        46.3750  VDWAALS    =      1404.9664
 EELEC  =    -10852.3757  EHBOND  =         0.0000  RESTRAINT  =         2.9554
 EAMBER (non-restraint)  =     -9375.3833
 EKCMT  =       854.9180  VIRIAL  =       991.7630  VOLUME     =     30565.7940
                                                    Density    =         0.9646
 Ewald error estimate:   0.1921E-03
 ------------------------------------------------------------------------------

      R M S  F L U C T U A T I O N S

 NSTEP =    10000   TIME(PS) =      20.000  TEMP(K) =    26.47  PRESS =   454.1
 Etot   =       329.4670  EKtot   =       155.4208  EPtot      =       180.1956
 BOND   =         1.4341  ANGLE   =         2.2638  DIHED      =         1.2318
 1-4 NB =         0.6828  1-4 EEL =         2.1690  VDWAALS    =        85.9327
 EELEC  =       255.4265  EHBOND  =         0.0000  RESTRAINT  =         1.2238
 EAMBER (non-restraint)  =       178.9717
 EKCMT  =        76.8740  VIRIAL  =       281.0179  VOLUME     =      1254.1370
                                                    Density    =         0.0367
 Ewald error estimate:   0.1464E-03
 ------------------------------------------------------------------------------
