-------------------------------------------------------
          Amber 16 SANDER                              2016
          -------------------------------------------------------

  [-O]verwriting output

File Assignments:

 Here is the input file:

Equilibrate water in NPT
 &cntrl

  nmropt = 0,
  ntx    = 1,       irest  = 0,       ntrx   = 1,      ntxo   = 1,
  ntpr   = 1000,    ntwx   = 1000,    ntwv   = 0,      ntwe   = 1000,
  iwrap  = 0,       ioutfm = 1,

  ntf    = 2,       ntb    = 2,
  cut = 9.0,

  ibelly = 0,       ntr    = 1,
  restraintmask = ':1',
  restraint_wt = 100.0,

  imin   = 0,
  nstlim = 10000,
  nscm   = 1000,
  t      = 0.0,     dt     = 0.002,

  temp0     = 298.0,   tempi  = 0.0,
  ig        = -1,
  ntt       = 3,
  gamma_ln  = 3.0,

  ntp    = 1,       pres0  = 1.0,     comp   = 44.6,
  taup   = 1.0,

  ntc    = 2,       tol    = 0.000001, watnam = 'WAT ',

 &end

--------------------------------------------------------------------------------
   1.  RESOURCE   USE:
--------------------------------------------------------------------------------

 getting new box info from bottom of inpcrd

 NATOM  =    3055 NTYPES =       9 NBONH =    3045 MBONA  =       9
 NTHETH =      25 MTHETA =      11 NPHIH =      43 MPHIA  =      24
 NHPARM =       0 NPARM  =       0 NNB   =    4143 NRES   =    1014
 NBONA  =       9 NTHETA =      11 NPHIA =      24 NUMBND =      10
 NUMANG =      16 NPTRA  =      19 NATYP =       9 NPHB   =       1
 IFBOX  =       2 NMXRS  =      10 IFCAP =       0 NEXTRA =       0
 NCOPY  =       0

     BOX TYPE: TRUNCATED OCTAHEDRON
Note: ig = -1. Setting random seed to   137987 based on wallclock time in microseconds
      and disabling the synchronization of random numbers between tasks
      to improve performance.

--------------------------------------------------------------------------------
   2.  CONTROL  DATA  FOR  THE  RUN
--------------------------------------------------------------------------------

default_name

General flags:
     imin    =       0, nmropt  =       0

Nature and format of input:
     ntx     =       1, irest   =       0, ntrx    =       1

Nature and format of output:
     ntxo    =       1, ntpr    =    1000, ntrx    =       1, ntwr    =   10000
     iwrap   =       0, ntwx    =    1000, ntwv    =       0, ntwe    =    1000
     ioutfm  =       1, ntwprt  =       0, idecomp =       0, rbornstat=      0

Potential function:
     ntf     =       2, ntb     =       2, igb     =       0, nsnb    =      25
     ipol    =       0, gbsa    =       0, iesp    =       0
     dielc   =   1.00000, cut     =   9.00000, intdiel =   1.00000

Frozen or restrained atoms:
     ibelly  =       0, ntr     =       1
     restraint_wt = 100.00000

Molecular dynamics:
     nstlim  =     10000, nscm    =         0, nrespa  =         1
     t       =   0.00000, dt      =   0.00200, vlimit  =  20.00000

Langevin dynamics temperature regulation:
     ig      =  137987
     temp0   = 298.00000, tempi   =   0.00000, gamma_ln=   3.00000

Pressure regulation:
     ntp     =       1
     pres0   =   1.00000, comp    =  44.60000, taup    =   1.00000

SHAKE:
     ntc     =       2, jfastw  =       0
     tol     =   0.00000

Ewald parameters:
     verbose =       0, ew_type =       0, nbflag  =       1, use_pme =       1
     vdwmeth =       1, eedmeth =       1, netfrc  =       1
     Box X =   36.250   Box Y =   36.250   Box Z =   36.250
     Alpha =  109.471   Beta  =  109.471   Gamma =  109.471
     NFFT1 =   36       NFFT2 =   36       NFFT3 =   36
     Cutoff=    9.000   Tol   =0.100E-04
     Ewald Coefficient =  0.30768
     Interpolation order =    4

    LOADING THE CONSTRAINED ATOMS AS GROUPS

   5.  REFERENCE ATOM COORDINATES

  defa
     Mask :1; matches     6 atoms

--------------------------------------------------------------------------------
   3.  ATOMIC COORDINATES AND VELOCITIES
--------------------------------------------------------------------------------

defa
 begin time read from input coords =     0.000 ps

 Number of triangulated 3-point waters found:     1011

     Sum of charges from parm topology file =  -0.00000000
     Forcing neutrality...

--------------------------------------------------------------------------------
   4.  RESULTS
 NSTEP =        0   TIME(PS) =       0.000  TEMP(K) =     0.00  PRESS = -5489.2
 Etot   =    -13359.2118  EKtot   =         0.0000  EPtot      =    -13359.2118
 BOND   =         0.3369  ANGLE   =         2.7559  DIHED      =        11.4268
 1-4 NB =         2.4497  1-4 EEL =        45.7647  VDWAALS    =      2340.1050
 EELEC  =    -15762.7758  EHBOND  =         0.0000  RESTRAINT  =         0.7249
 EAMBER (non-restraint)  =    -13359.9367
 EKCMT  =         0.0000  VIRIAL  =      4346.0338  VOLUME     =     36669.6713
                                                    Density    =         0.8313
 Ewald error estimate:   0.1685E-03
 ------------------------------------------------------------------------------

      A V E R A G E S   O V E R   10000 S T E P S

 NSTEP =    10000   TIME(PS) =      20.000  TEMP(K) =   291.90  PRESS =  -190.3
 Etot   =     -7949.2002  EKtot   =      1775.0174  EPtot      =     -9724.2177
 BOND   =         3.2158  ANGLE   =         9.5425  DIHED      =        11.3809
 1-4 NB =         2.9583  1-4 EEL =        45.3513  VDWAALS    =      1456.5622
 EELEC  =    -11256.1825  EHBOND  =         0.0000  RESTRAINT  =         2.9537
 EAMBER (non-restraint)  =     -9727.1714
 EKCMT  =       885.5367  VIRIAL  =      1024.1100  VOLUME     =     31524.2212
                                                    Density    =         0.9684
 Ewald error estimate:   0.1834E-03
 ------------------------------------------------------------------------------

      R M S  F L U C T U A T I O N S

 NSTEP =    10000   TIME(PS) =      20.000  TEMP(K) =    26.08  PRESS =   440.0
 Etot   =       339.2430  EKtot   =       158.5716  EPtot      =       187.3568
 BOND   =         1.4591  ANGLE   =         2.3219  DIHED      =         1.2327
 1-4 NB =         0.7212  1-4 EEL =         1.7973  VDWAALS    =        87.5261
 EELEC  =       265.7576  EHBOND  =         0.0000  RESTRAINT  =         1.2377
 EAMBER (non-restraint)  =       186.1190
 EKCMT  =        77.5158  VIRIAL  =       281.3550  VOLUME     =      1233.0561
                                                    Density    =         0.0350
 Ewald error estimate:   0.1341E-03
 ------------------------------------------------------------------------------
