-------------------------------------------------------
          Amber 16 SANDER                              2016
          -------------------------------------------------------

  [-O]verwriting output

File Assignments:

 Here is the input file:

Equilibrate water in NPT
 &cntrl

  nmropt = 0,
  ntx    = 1,       irest  = 0,       ntrx   = 1,      ntxo   = 1,
  ntpr   = 1000,    ntwx   = 1000,    ntwv   = 0,      ntwe   = 1000,
  iwrap  = 0,       ioutfm = 1,

  ntf    = 2,       ntb    = 2,
  cut = 9.0,

  ibelly = 0,       ntr    = 1,
  restraintmask = ':1',
  restraint_wt = 100.0,

  imin   = 0,
  nstlim = 10000,
  nscm   = 1000,
  t      = 0.0,     dt     = 0.002,

  temp0     = 298.0,   tempi  = 0.0,
  ig        = -1,
  ntt       = 3,
  gamma_ln  = 3.0,

  ntp    = 1,       pres0  = 1.0,     comp   = 44.6,
  taup   = 1.0,

  ntc    = 2,       tol    = 0.000001, watnam = 'WAT ',

 &end

--------------------------------------------------------------------------------
   1.  RESOURCE   USE:
--------------------------------------------------------------------------------

 getting new box info from bottom of inpcrd

 NATOM  =    2854 NTYPES =       9 NBONH =    2844 MBONA  =       9
 NTHETH =      25 MTHETA =      11 NPHIH =      43 MPHIA  =      24
 NHPARM =       0 NPARM  =       0 NNB   =    3875 NRES   =     947
 NBONA  =       9 NTHETA =      11 NPHIA =      24 NUMBND =      10
 NUMANG =      16 NPTRA  =      19 NATYP =       9 NPHB   =       1
 IFBOX  =       2 NMXRS  =      10 IFCAP =       0 NEXTRA =       0
 NCOPY  =       0

     BOX TYPE: TRUNCATED OCTAHEDRON
Note: ig = -1. Setting random seed to   466445 based on wallclock time in microseconds
      and disabling the synchronization of random numbers between tasks
      to improve performance.

--------------------------------------------------------------------------------
   2.  CONTROL  DATA  FOR  THE  RUN
--------------------------------------------------------------------------------

default_name

General flags:
     imin    =       0, nmropt  =       0

Nature and format of input:
     ntx     =       1, irest   =       0, ntrx    =       1

Nature and format of output:
     ntxo    =       1, ntpr    =    1000, ntrx    =       1, ntwr    =   10000
     iwrap   =       0, ntwx    =    1000, ntwv    =       0, ntwe    =    1000
     ioutfm  =       1, ntwprt  =       0, idecomp =       0, rbornstat=      0

Potential function:
     ntf     =       2, ntb     =       2, igb     =       0, nsnb    =      25
     ipol    =       0, gbsa    =       0, iesp    =       0
     dielc   =   1.00000, cut     =   9.00000, intdiel =   1.00000

Frozen or restrained atoms:
     ibelly  =       0, ntr     =       1
     restraint_wt = 100.00000

Molecular dynamics:
     nstlim  =     10000, nscm    =         0, nrespa  =         1
     t       =   0.00000, dt      =   0.00200, vlimit  =  20.00000

Langevin dynamics temperature regulation:
     ig      =  466445
     temp0   = 298.00000, tempi   =   0.00000, gamma_ln=   3.00000

Pressure regulation:
     ntp     =       1
     pres0   =   1.00000, comp    =  44.60000, taup    =   1.00000

SHAKE:
     ntc     =       2, jfastw  =       0
     tol     =   0.00000

Ewald parameters:
     verbose =       0, ew_type =       0, nbflag  =       1, use_pme =       1
     vdwmeth =       1, eedmeth =       1, netfrc  =       1
     Box X =   35.493   Box Y =   35.493   Box Z =   35.493
     Alpha =  109.471   Beta  =  109.471   Gamma =  109.471
     NFFT1 =   36       NFFT2 =   36       NFFT3 =   36
     Cutoff=    9.000   Tol   =0.100E-04
     Ewald Coefficient =  0.30768
     Interpolation order =    4

    LOADING THE CONSTRAINED ATOMS AS GROUPS

   5.  REFERENCE ATOM COORDINATES

  defa
     Mask :1; matches     6 atoms

--------------------------------------------------------------------------------
   3.  ATOMIC COORDINATES AND VELOCITIES
--------------------------------------------------------------------------------

defa
 begin time read from input coords =     0.000 ps

 Number of triangulated 3-point waters found:      944

     Sum of charges from parm topology file =  -0.00000000
     Forcing neutrality...

--------------------------------------------------------------------------------
   4.  RESULTS
 NSTEP =        0   TIME(PS) =       0.000  TEMP(K) =     0.00  PRESS = -5243.1
 Etot   =    -12460.1164  EKtot   =         0.0000  EPtot      =    -12460.1164
 BOND   =         0.4177  ANGLE   =         2.0147  DIHED      =        13.4078
 1-4 NB =         2.5420  1-4 EEL =        44.7075  VDWAALS    =      2216.2895
 EELEC  =    -14739.6513  EHBOND  =         0.0000  RESTRAINT  =         0.1555
 EAMBER (non-restraint)  =    -12460.2720
 EKCMT  =         0.0000  VIRIAL  =      3896.4217  VOLUME     =     34419.0129
                                                    Density    =         0.8275
 Ewald error estimate:   0.1103E-03
 ------------------------------------------------------------------------------

      A V E R A G E S   O V E R   10000 S T E P S

 NSTEP =    10000   TIME(PS) =      20.000  TEMP(K) =   294.37  PRESS =  -190.8
 Etot   =     -7383.6461  EKtot   =      1672.4131  EPtot      =     -9056.0592
 BOND   =         3.1020  ANGLE   =         8.6223  DIHED      =        11.6125
 1-4 NB =         3.4643  1-4 EEL =        43.7009  VDWAALS    =      1356.7638
 EELEC  =    -10486.6215  EHBOND  =         0.0000  RESTRAINT  =         3.2963
 EAMBER (non-restraint)  =     -9059.3555
 EKCMT  =       832.5872  VIRIAL  =       962.9943  VOLUME     =     29584.1407
                                                    Density    =         0.9640
 Ewald error estimate:   0.2024E-03
 ------------------------------------------------------------------------------

      R M S  F L U C T U A T I O N S

 NSTEP =    10000   TIME(PS) =      20.000  TEMP(K) =    27.09  PRESS =   453.5
 Etot   =       325.3043  EKtot   =       153.8991  EPtot      =       176.9955
 BOND   =         1.4592  ANGLE   =         2.4050  DIHED      =         1.7100
 1-4 NB =         0.8198  1-4 EEL =         1.8750  VDWAALS    =        84.3668
 EELEC  =       253.4413  EHBOND  =         0.0000  RESTRAINT  =         1.3164
 EAMBER (non-restraint)  =       175.6791
 EKCMT  =        75.3621  VIRIAL  =       271.6645  VOLUME     =      1126.1764
                                                    Density    =         0.0338
 Ewald error estimate:   0.1520E-03
 ------------------------------------------------------------------------------
