-------------------------------------------------------
          Amber 16 SANDER                              2016
          -------------------------------------------------------

  [-O]verwriting output

File Assignments:

 Here is the input file:

Equilibrate water in NPT
 &cntrl

  nmropt = 0,
  ntx    = 1,       irest  = 0,       ntrx   = 1,      ntxo   = 1,
  ntpr   = 1000,    ntwx   = 1000,    ntwv   = 0,      ntwe   = 1000,
  iwrap  = 0,       ioutfm = 1,

  ntf    = 2,       ntb    = 2,
  cut = 9.0,

  ibelly = 0,       ntr    = 1,
  restraintmask = ':1',
  restraint_wt = 100.0,

  imin   = 0,
  nstlim = 10000,
  nscm   = 1000,
  t      = 0.0,     dt     = 0.002,

  temp0     = 298.0,   tempi  = 0.0,
  ig        = -1,
  ntt       = 3,
  gamma_ln  = 3.0,

  ntp    = 1,       pres0  = 1.0,     comp   = 44.6,
  taup   = 1.0,

  ntc    = 2,       tol    = 0.000001, watnam = 'WAT ',

 &end

--------------------------------------------------------------------------------
   1.  RESOURCE   USE:
--------------------------------------------------------------------------------

 getting new box info from bottom of inpcrd

 NATOM  =    3007 NTYPES =       9 NBONH =    2997 MBONA  =       9
 NTHETH =      25 MTHETA =      11 NPHIH =      43 MPHIA  =      24
 NHPARM =       0 NPARM  =       0 NNB   =    4079 NRES   =     998
 NBONA  =       9 NTHETA =      11 NPHIA =      24 NUMBND =      10
 NUMANG =      16 NPTRA  =      19 NATYP =       9 NPHB   =       1
 IFBOX  =       2 NMXRS  =      10 IFCAP =       0 NEXTRA =       0
 NCOPY  =       0

     BOX TYPE: TRUNCATED OCTAHEDRON
Note: ig = -1. Setting random seed to   324728 based on wallclock time in microseconds
      and disabling the synchronization of random numbers between tasks
      to improve performance.

--------------------------------------------------------------------------------
   2.  CONTROL  DATA  FOR  THE  RUN
--------------------------------------------------------------------------------

default_name

General flags:
     imin    =       0, nmropt  =       0

Nature and format of input:
     ntx     =       1, irest   =       0, ntrx    =       1

Nature and format of output:
     ntxo    =       1, ntpr    =    1000, ntrx    =       1, ntwr    =   10000
     iwrap   =       0, ntwx    =    1000, ntwv    =       0, ntwe    =    1000
     ioutfm  =       1, ntwprt  =       0, idecomp =       0, rbornstat=      0

Potential function:
     ntf     =       2, ntb     =       2, igb     =       0, nsnb    =      25
     ipol    =       0, gbsa    =       0, iesp    =       0
     dielc   =   1.00000, cut     =   9.00000, intdiel =   1.00000

Frozen or restrained atoms:
     ibelly  =       0, ntr     =       1
     restraint_wt = 100.00000

Molecular dynamics:
     nstlim  =     10000, nscm    =         0, nrespa  =         1
     t       =   0.00000, dt      =   0.00200, vlimit  =  20.00000

Langevin dynamics temperature regulation:
     ig      =  324728
     temp0   = 298.00000, tempi   =   0.00000, gamma_ln=   3.00000

Pressure regulation:
     ntp     =       1
     pres0   =   1.00000, comp    =  44.60000, taup    =   1.00000

SHAKE:
     ntc     =       2, jfastw  =       0
     tol     =   0.00000

Ewald parameters:
     verbose =       0, ew_type =       0, nbflag  =       1, use_pme =       1
     vdwmeth =       1, eedmeth =       1, netfrc  =       1
     Box X =   36.131   Box Y =   36.131   Box Z =   36.131
     Alpha =  109.471   Beta  =  109.471   Gamma =  109.471
     NFFT1 =   36       NFFT2 =   36       NFFT3 =   36
     Cutoff=    9.000   Tol   =0.100E-04
     Ewald Coefficient =  0.30768
     Interpolation order =    4

    LOADING THE CONSTRAINED ATOMS AS GROUPS

   5.  REFERENCE ATOM COORDINATES

  defa
     Mask :1; matches     6 atoms

--------------------------------------------------------------------------------
   3.  ATOMIC COORDINATES AND VELOCITIES
--------------------------------------------------------------------------------

defa
 begin time read from input coords =     0.000 ps

 Number of triangulated 3-point waters found:      995

     Sum of charges from parm topology file =  -0.00000000
     Forcing neutrality...

--------------------------------------------------------------------------------
   4.  RESULTS
 NSTEP =        0   TIME(PS) =       0.000  TEMP(K) =     0.00  PRESS = -5263.9
 Etot   =    -13189.1814  EKtot   =         0.0000  EPtot      =    -13189.1814
 BOND   =         0.8832  ANGLE   =         2.7683  DIHED      =        10.6308
 1-4 NB =         2.6917  1-4 EEL =        45.3238  VDWAALS    =      2346.2500
 EELEC  =    -15598.0925  EHBOND  =         0.0000  RESTRAINT  =         0.3632
 EAMBER (non-restraint)  =    -13189.5446
 EKCMT  =         0.0000  VIRIAL  =      4126.7787  VOLUME     =     36309.9807
                                                    Density    =         0.8264
 Ewald error estimate:   0.1590E-03
 ------------------------------------------------------------------------------

      A V E R A G E S   O V E R   10000 S T E P S

 NSTEP =    10000   TIME(PS) =      20.000  TEMP(K) =   291.68  PRESS =  -202.8
 Etot   =     -7828.5796  EKtot   =      1745.8388  EPtot      =     -9574.4183
 BOND   =         3.2262  ANGLE   =         9.7140  DIHED      =        11.7200
 1-4 NB =         3.0514  1-4 EEL =        45.5554  VDWAALS    =      1437.2374
 EELEC  =    -11087.9227  EHBOND  =         0.0000  RESTRAINT  =         3.0000
 EAMBER (non-restraint)  =     -9577.4183
 EKCMT  =       867.5174  VIRIAL  =      1012.9643  VOLUME     =     31069.8240
                                                    Density    =         0.9673
 Ewald error estimate:   0.1992E-03
 ------------------------------------------------------------------------------

      R M S  F L U C T U A T I O N S

 NSTEP =    10000   TIME(PS) =      20.000  TEMP(K) =    26.09  PRESS =   467.4
 Etot   =       332.8447  EKtot   =       156.1807  EPtot      =       183.3991
 BOND   =         1.4878  ANGLE   =         2.4916  DIHED      =         1.4893
 1-4 NB =         0.7251  1-4 EEL =         1.9751  VDWAALS    =        88.3563
 EELEC  =       260.8945  EHBOND  =         0.0000  RESTRAINT  =         1.2016
 EAMBER (non-restraint)  =       182.1975
 EKCMT  =        75.6342  VIRIAL  =       297.3976  VOLUME     =      1270.0056
                                                    Density    =         0.0365
 Ewald error estimate:   0.1505E-03
 ------------------------------------------------------------------------------
