-------------------------------------------------------
          Amber 16 SANDER                              2016
          -------------------------------------------------------

  [-O]verwriting output

File Assignments:

 Here is the input file:

Equilibrate water in NPT
 &cntrl

  nmropt = 0,
  ntx    = 1,       irest  = 0,       ntrx   = 1,      ntxo   = 1,
  ntpr   = 1000,    ntwx   = 1000,    ntwv   = 0,      ntwe   = 1000,
  iwrap  = 0,       ioutfm = 1,

  ntf    = 2,       ntb    = 2,
  cut = 9.0,

  ibelly = 0,       ntr    = 1,
  restraintmask = ':1',
  restraint_wt = 100.0,

  imin   = 0,
  nstlim = 10000,
  nscm   = 1000,
  t      = 0.0,     dt     = 0.002,

  temp0     = 298.0,   tempi  = 0.0,
  ig        = -1,
  ntt       = 3,
  gamma_ln  = 3.0,

  ntp    = 1,       pres0  = 1.0,     comp   = 44.6,
  taup   = 1.0,

  ntc    = 2,       tol    = 0.000001, watnam = 'WAT ',

 &end

--------------------------------------------------------------------------------
   1.  RESOURCE   USE:
--------------------------------------------------------------------------------

 getting new box info from bottom of inpcrd

 NATOM  =    3067 NTYPES =       9 NBONH =    3057 MBONA  =       9
 NTHETH =      25 MTHETA =      11 NPHIH =      43 MPHIA  =      24
 NHPARM =       0 NPARM  =       0 NNB   =    4159 NRES   =    1018
 NBONA  =       9 NTHETA =      11 NPHIA =      24 NUMBND =      10
 NUMANG =      16 NPTRA  =      19 NATYP =       9 NPHB   =       1
 IFBOX  =       2 NMXRS  =      10 IFCAP =       0 NEXTRA =       0
 NCOPY  =       0

     BOX TYPE: TRUNCATED OCTAHEDRON
Note: ig = -1. Setting random seed to   936684 based on wallclock time in microseconds
      and disabling the synchronization of random numbers between tasks
      to improve performance.

--------------------------------------------------------------------------------
   2.  CONTROL  DATA  FOR  THE  RUN
--------------------------------------------------------------------------------

default_name

General flags:
     imin    =       0, nmropt  =       0

Nature and format of input:
     ntx     =       1, irest   =       0, ntrx    =       1

Nature and format of output:
     ntxo    =       1, ntpr    =    1000, ntrx    =       1, ntwr    =   10000
     iwrap   =       0, ntwx    =    1000, ntwv    =       0, ntwe    =    1000
     ioutfm  =       1, ntwprt  =       0, idecomp =       0, rbornstat=      0

Potential function:
     ntf     =       2, ntb     =       2, igb     =       0, nsnb    =      25
     ipol    =       0, gbsa    =       0, iesp    =       0
     dielc   =   1.00000, cut     =   9.00000, intdiel =   1.00000

Frozen or restrained atoms:
     ibelly  =       0, ntr     =       1
     restraint_wt = 100.00000

Molecular dynamics:
     nstlim  =     10000, nscm    =         0, nrespa  =         1
     t       =   0.00000, dt      =   0.00200, vlimit  =  20.00000

Langevin dynamics temperature regulation:
     ig      =  936684
     temp0   = 298.00000, tempi   =   0.00000, gamma_ln=   3.00000

Pressure regulation:
     ntp     =       1
     pres0   =   1.00000, comp    =  44.60000, taup    =   1.00000

SHAKE:
     ntc     =       2, jfastw  =       0
     tol     =   0.00000

Ewald parameters:
     verbose =       0, ew_type =       0, nbflag  =       1, use_pme =       1
     vdwmeth =       1, eedmeth =       1, netfrc  =       1
     Box X =   36.280   Box Y =   36.280   Box Z =   36.280
     Alpha =  109.471   Beta  =  109.471   Gamma =  109.471
     NFFT1 =   36       NFFT2 =   36       NFFT3 =   36
     Cutoff=    9.000   Tol   =0.100E-04
     Ewald Coefficient =  0.30768
     Interpolation order =    4

    LOADING THE CONSTRAINED ATOMS AS GROUPS

   5.  REFERENCE ATOM COORDINATES

  defa
     Mask :1; matches     6 atoms

--------------------------------------------------------------------------------
   3.  ATOMIC COORDINATES AND VELOCITIES
--------------------------------------------------------------------------------

defa
 begin time read from input coords =     0.000 ps

 Number of triangulated 3-point waters found:     1015

     Sum of charges from parm topology file =  -0.00000000
     Forcing neutrality...

--------------------------------------------------------------------------------
   4.  RESULTS
 NSTEP =        0   TIME(PS) =       0.000  TEMP(K) =     0.00  PRESS = -5188.8
 Etot   =    -13378.4189  EKtot   =         0.0000  EPtot      =    -13378.4189
 BOND   =         0.6153  ANGLE   =         0.8444  DIHED      =         8.7137
 1-4 NB =         2.5887  1-4 EEL =        45.9958  VDWAALS    =      2388.1064
 EELEC  =    -15825.4349  EHBOND  =         0.0000  RESTRAINT  =         0.1517
 EAMBER (non-restraint)  =    -13378.5706
 EKCMT  =         0.0000  VIRIAL  =      4118.5098  VOLUME     =     36761.8874
                                                    Density    =         0.8325
 Ewald error estimate:   0.1474E-03
 ------------------------------------------------------------------------------

      A V E R A G E S   O V E R   10000 S T E P S

 NSTEP =    10000   TIME(PS) =      20.000  TEMP(K) =   293.63  PRESS =  -192.5
 Etot   =     -7942.3361  EKtot   =      1792.5268  EPtot      =     -9734.8629
 BOND   =         3.0228  ANGLE   =         8.0675  DIHED      =        10.9113
 1-4 NB =         3.1484  1-4 EEL =        45.9310  VDWAALS    =      1454.3582
 EELEC  =    -11263.3152  EHBOND  =         0.0000  RESTRAINT  =         3.0131
 EAMBER (non-restraint)  =     -9737.8760
 EKCMT  =       893.4110  VIRIAL  =      1033.8105  VOLUME     =     31744.6399
                                                    Density    =         0.9654
 Ewald error estimate:   0.1890E-03
 ------------------------------------------------------------------------------

      R M S  F L U C T U A T I O N S

 NSTEP =    10000   TIME(PS) =      20.000  TEMP(K) =    26.26  PRESS =   443.1
 Etot   =       341.7321  EKtot   =       160.2797  EPtot      =       187.4507
 BOND   =         1.4047  ANGLE   =         2.1901  DIHED      =         1.2379
 1-4 NB =         0.7344  1-4 EEL =         2.1454  VDWAALS    =        91.0553
 EELEC  =       268.8720  EHBOND  =         0.0000  RESTRAINT  =         1.2128
 EAMBER (non-restraint)  =       186.2379
 EKCMT  =        77.0057  VIRIAL  =       287.5105  VOLUME     =      1217.3083
                                                    Density    =         0.0343
 Ewald error estimate:   0.1394E-03
 ------------------------------------------------------------------------------
