-------------------------------------------------------
          Amber 16 SANDER                              2016
          -------------------------------------------------------

  [-O]verwriting output

File Assignments:

 Here is the input file:

Equilibrate water in NPT
 &cntrl

  nmropt = 0,
  ntx    = 1,       irest  = 0,       ntrx   = 1,      ntxo   = 1,
  ntpr   = 1000,    ntwx   = 1000,    ntwv   = 0,      ntwe   = 1000,
  iwrap  = 0,       ioutfm = 1,

  ntf    = 2,       ntb    = 2,
  cut = 9.0,

  ibelly = 0,       ntr    = 1,
  restraintmask = ':1',
  restraint_wt = 100.0,

  imin   = 0,
  nstlim = 10000,
  nscm   = 1000,
  t      = 0.0,     dt     = 0.002,

  temp0     = 298.0,   tempi  = 0.0,
  ig        = -1,
  ntt       = 3,
  gamma_ln  = 3.0,

  ntp    = 1,       pres0  = 1.0,     comp   = 44.6,
  taup   = 1.0,

  ntc    = 2,       tol    = 0.000001, watnam = 'WAT ',

 &end

--------------------------------------------------------------------------------
   1.  RESOURCE   USE:
--------------------------------------------------------------------------------

 getting new box info from bottom of inpcrd

 NATOM  =    3139 NTYPES =       9 NBONH =    3129 MBONA  =       9
 NTHETH =      25 MTHETA =      11 NPHIH =      43 MPHIA  =      24
 NHPARM =       0 NPARM  =       0 NNB   =    4255 NRES   =    1042
 NBONA  =       9 NTHETA =      11 NPHIA =      24 NUMBND =      10
 NUMANG =      16 NPTRA  =      19 NATYP =       9 NPHB   =       1
 IFBOX  =       2 NMXRS  =      10 IFCAP =       0 NEXTRA =       0
 NCOPY  =       0

     BOX TYPE: TRUNCATED OCTAHEDRON
Note: ig = -1. Setting random seed to   794500 based on wallclock time in microseconds
      and disabling the synchronization of random numbers between tasks
      to improve performance.

--------------------------------------------------------------------------------
   2.  CONTROL  DATA  FOR  THE  RUN
--------------------------------------------------------------------------------

default_name

General flags:
     imin    =       0, nmropt  =       0

Nature and format of input:
     ntx     =       1, irest   =       0, ntrx    =       1

Nature and format of output:
     ntxo    =       1, ntpr    =    1000, ntrx    =       1, ntwr    =   10000
     iwrap   =       0, ntwx    =    1000, ntwv    =       0, ntwe    =    1000
     ioutfm  =       1, ntwprt  =       0, idecomp =       0, rbornstat=      0

Potential function:
     ntf     =       2, ntb     =       2, igb     =       0, nsnb    =      25
     ipol    =       0, gbsa    =       0, iesp    =       0
     dielc   =   1.00000, cut     =   9.00000, intdiel =   1.00000

Frozen or restrained atoms:
     ibelly  =       0, ntr     =       1
     restraint_wt = 100.00000

Molecular dynamics:
     nstlim  =     10000, nscm    =         0, nrespa  =         1
     t       =   0.00000, dt      =   0.00200, vlimit  =  20.00000

Langevin dynamics temperature regulation:
     ig      =  794500
     temp0   = 298.00000, tempi   =   0.00000, gamma_ln=   3.00000

Pressure regulation:
     ntp     =       1
     pres0   =   1.00000, comp    =  44.60000, taup    =   1.00000

SHAKE:
     ntc     =       2, jfastw  =       0
     tol     =   0.00000

Ewald parameters:
     verbose =       0, ew_type =       0, nbflag  =       1, use_pme =       1
     vdwmeth =       1, eedmeth =       1, netfrc  =       1
     Box X =   36.505   Box Y =   36.505   Box Z =   36.505
     Alpha =  109.471   Beta  =  109.471   Gamma =  109.471
     NFFT1 =   36       NFFT2 =   36       NFFT3 =   36
     Cutoff=    9.000   Tol   =0.100E-04
     Ewald Coefficient =  0.30768
     Interpolation order =    4

    LOADING THE CONSTRAINED ATOMS AS GROUPS

   5.  REFERENCE ATOM COORDINATES

  defa
     Mask :1; matches     6 atoms

--------------------------------------------------------------------------------
   3.  ATOMIC COORDINATES AND VELOCITIES
--------------------------------------------------------------------------------

defa
 begin time read from input coords =     0.000 ps

 Number of triangulated 3-point waters found:     1039

     Sum of charges from parm topology file =  -0.00000000
     Forcing neutrality...

--------------------------------------------------------------------------------
   4.  RESULTS
 NSTEP =        0   TIME(PS) =       0.000  TEMP(K) =     0.00  PRESS = -5057.3
 Etot   =    -13723.0465  EKtot   =         0.0000  EPtot      =    -13723.0465
 BOND   =         0.6045  ANGLE   =         2.1185  DIHED      =        11.5303
 1-4 NB =         3.0563  1-4 EEL =        46.8132  VDWAALS    =      2465.3121
 EELEC  =    -16252.6546  EHBOND  =         0.0000  RESTRAINT  =         0.1732
 EAMBER (non-restraint)  =    -13723.2197
 EKCMT  =         0.0000  VIRIAL  =      4089.3040  VOLUME     =     37449.7864
                                                    Density    =         0.8364
 Ewald error estimate:   0.3520E-03
 ------------------------------------------------------------------------------

      A V E R A G E S   O V E R   10000 S T E P S

 NSTEP =    10000   TIME(PS) =      20.000  TEMP(K) =   292.79  PRESS =  -194.2
 Etot   =     -8159.3191  EKtot   =      1829.2458  EPtot      =     -9988.5649
 BOND   =         3.1391  ANGLE   =         9.4742  DIHED      =        11.6476
 1-4 NB =         3.1419  1-4 EEL =        45.7390  VDWAALS    =      1494.4844
 EELEC  =    -11559.3767  EHBOND  =         0.0000  RESTRAINT  =         3.1857
 EAMBER (non-restraint)  =     -9991.7506
 EKCMT  =       913.7359  VIRIAL  =      1057.9320  VOLUME     =     32408.3641
                                                    Density    =         0.9679
 Ewald error estimate:   0.1939E-03
 ------------------------------------------------------------------------------

      R M S  F L U C T U A T I O N S

 NSTEP =    10000   TIME(PS) =      20.000  TEMP(K) =    26.17  PRESS =   419.0
 Etot   =       348.1939  EKtot   =       163.4779  EPtot      =       192.5370
 BOND   =         1.5122  ANGLE   =         2.4210  DIHED      =         1.3418
 1-4 NB =         0.7442  1-4 EEL =         2.0414  VDWAALS    =        97.6658
 EELEC  =       281.5094  EHBOND  =         0.0000  RESTRAINT  =         1.3506
 EAMBER (non-restraint)  =       191.1864
 EKCMT  =        79.7789  VIRIAL  =       280.4149  VOLUME     =      1258.7467
                                                    Density    =         0.0348
 Ewald error estimate:   0.1483E-03
 ------------------------------------------------------------------------------
