-------------------------------------------------------
          Amber 16 SANDER                              2016
          -------------------------------------------------------

  [-O]verwriting output

File Assignments:

 Here is the input file:

Equilibrate water in NPT
 &cntrl

  nmropt = 0,
  ntx    = 1,       irest  = 0,       ntrx   = 1,      ntxo   = 1,
  ntpr   = 1000,    ntwx   = 1000,    ntwv   = 0,      ntwe   = 1000,
  iwrap  = 0,       ioutfm = 1,

  ntf    = 2,       ntb    = 2,
  cut = 9.0,

  ibelly = 0,       ntr    = 1,
  restraintmask = ':1',
  restraint_wt = 100.0,

  imin   = 0,
  nstlim = 10000,
  nscm   = 1000,
  t      = 0.0,     dt     = 0.002,

  temp0     = 298.0,   tempi  = 0.0,
  ig        = -1,
  ntt       = 3,
  gamma_ln  = 3.0,

  ntp    = 1,       pres0  = 1.0,     comp   = 44.6,
  taup   = 1.0,

  ntc    = 2,       tol    = 0.000001, watnam = 'WAT ',

 &end

--------------------------------------------------------------------------------
   1.  RESOURCE   USE:
--------------------------------------------------------------------------------

 getting new box info from bottom of inpcrd

 NATOM  =    2995 NTYPES =       9 NBONH =    2985 MBONA  =       9
 NTHETH =      25 MTHETA =      11 NPHIH =      43 MPHIA  =      24
 NHPARM =       0 NPARM  =       0 NNB   =    4063 NRES   =     994
 NBONA  =       9 NTHETA =      11 NPHIA =      24 NUMBND =      10
 NUMANG =      16 NPTRA  =      19 NATYP =       9 NPHB   =       1
 IFBOX  =       2 NMXRS  =      10 IFCAP =       0 NEXTRA =       0
 NCOPY  =       0

     BOX TYPE: TRUNCATED OCTAHEDRON
Note: ig = -1. Setting random seed to    82384 based on wallclock time in microseconds
      and disabling the synchronization of random numbers between tasks
      to improve performance.

--------------------------------------------------------------------------------
   2.  CONTROL  DATA  FOR  THE  RUN
--------------------------------------------------------------------------------

default_name

General flags:
     imin    =       0, nmropt  =       0

Nature and format of input:
     ntx     =       1, irest   =       0, ntrx    =       1

Nature and format of output:
     ntxo    =       1, ntpr    =    1000, ntrx    =       1, ntwr    =   10000
     iwrap   =       0, ntwx    =    1000, ntwv    =       0, ntwe    =    1000
     ioutfm  =       1, ntwprt  =       0, idecomp =       0, rbornstat=      0

Potential function:
     ntf     =       2, ntb     =       2, igb     =       0, nsnb    =      25
     ipol    =       0, gbsa    =       0, iesp    =       0
     dielc   =   1.00000, cut     =   9.00000, intdiel =   1.00000

Frozen or restrained atoms:
     ibelly  =       0, ntr     =       1
     restraint_wt = 100.00000

Molecular dynamics:
     nstlim  =     10000, nscm    =         0, nrespa  =         1
     t       =   0.00000, dt      =   0.00200, vlimit  =  20.00000

Langevin dynamics temperature regulation:
     ig      =   82384
     temp0   = 298.00000, tempi   =   0.00000, gamma_ln=   3.00000

Pressure regulation:
     ntp     =       1
     pres0   =   1.00000, comp    =  44.60000, taup    =   1.00000

SHAKE:
     ntc     =       2, jfastw  =       0
     tol     =   0.00000

Ewald parameters:
     verbose =       0, ew_type =       0, nbflag  =       1, use_pme =       1
     vdwmeth =       1, eedmeth =       1, netfrc  =       1
     Box X =   36.104   Box Y =   36.104   Box Z =   36.104
     Alpha =  109.471   Beta  =  109.471   Gamma =  109.471
     NFFT1 =   36       NFFT2 =   36       NFFT3 =   36
     Cutoff=    9.000   Tol   =0.100E-04
     Ewald Coefficient =  0.30768
     Interpolation order =    4

    LOADING THE CONSTRAINED ATOMS AS GROUPS

   5.  REFERENCE ATOM COORDINATES

  defa
     Mask :1; matches     6 atoms

--------------------------------------------------------------------------------
   3.  ATOMIC COORDINATES AND VELOCITIES
--------------------------------------------------------------------------------

defa
 begin time read from input coords =     0.000 ps

 Number of triangulated 3-point waters found:      991

     Sum of charges from parm topology file =  -0.00000000
     Forcing neutrality...

--------------------------------------------------------------------------------
   4.  RESULTS
 NSTEP =        0   TIME(PS) =       0.000  TEMP(K) =     0.00  PRESS = -5412.1
 Etot   =    -13090.6615  EKtot   =         0.0000  EPtot      =    -13090.6615
 BOND   =         0.4598  ANGLE   =         0.9898  DIHED      =         9.8465
 1-4 NB =         2.5562  1-4 EEL =        46.9008  VDWAALS    =      2295.1533
 EELEC  =    -15446.6786  EHBOND  =         0.0000  RESTRAINT  =         0.1107
 EAMBER (non-restraint)  =    -13090.7723
 EKCMT  =         0.0000  VIRIAL  =      4233.4590  VOLUME     =     36228.6624
                                                    Density    =         0.8250
 Ewald error estimate:   0.2169E-03
 ------------------------------------------------------------------------------

      A V E R A G E S   O V E R   10000 S T E P S

 NSTEP =    10000   TIME(PS) =      20.000  TEMP(K) =   294.52  PRESS =  -189.3
 Etot   =     -7733.9550  EKtot   =      1755.7961  EPtot      =     -9489.7511
 BOND   =         3.1753  ANGLE   =         8.1794  DIHED      =        11.5015
 1-4 NB =         3.1015  1-4 EEL =        46.6274  VDWAALS    =      1414.7843
 EELEC  =    -10980.1018  EHBOND  =         0.0000  RESTRAINT  =         2.9813
 EAMBER (non-restraint)  =     -9492.7324
 EKCMT  =       873.9937  VIRIAL  =      1010.2089  VOLUME     =     31064.8150
                                                    Density    =         0.9636
 Ewald error estimate:   0.1938E-03
 ------------------------------------------------------------------------------

      R M S  F L U C T U A T I O N S

 NSTEP =    10000   TIME(PS) =      20.000  TEMP(K) =    26.53  PRESS =   459.6
 Etot   =       339.4468  EKtot   =       158.1769  EPtot      =       189.3828
 BOND   =         1.5003  ANGLE   =         2.3123  DIHED      =         1.2156
 1-4 NB =         0.6988  1-4 EEL =         2.0523  VDWAALS    =        89.4420
 EELEC  =       269.1062  EHBOND  =         0.0000  RESTRAINT  =         1.2378
 EAMBER (non-restraint)  =       188.1450
 EKCMT  =        77.3066  VIRIAL  =       290.4312  VOLUME     =      1267.9369
                                                    Density    =         0.0364
 Ewald error estimate:   0.1461E-03
 ------------------------------------------------------------------------------
