-------------------------------------------------------
          Amber 16 SANDER                              2016
          -------------------------------------------------------

  [-O]verwriting output

File Assignments:

 Here is the input file:

Equilibrate water in NPT
 &cntrl

  nmropt = 0,
  ntx    = 1,       irest  = 0,       ntrx   = 1,      ntxo   = 1,
  ntpr   = 1000,    ntwx   = 1000,    ntwv   = 0,      ntwe   = 1000,
  iwrap  = 0,       ioutfm = 1,

  ntf    = 2,       ntb    = 2,
  cut = 9.0,

  ibelly = 0,       ntr    = 1,
  restraintmask = ':1',
  restraint_wt = 100.0,

  imin   = 0,
  nstlim = 10000,
  nscm   = 1000,
  t      = 0.0,     dt     = 0.002,

  temp0     = 298.0,   tempi  = 0.0,
  ig        = -1,
  ntt       = 3,
  gamma_ln  = 3.0,

  ntp    = 1,       pres0  = 1.0,     comp   = 44.6,
  taup   = 1.0,

  ntc    = 2,       tol    = 0.000001, watnam = 'WAT ',

 &end

--------------------------------------------------------------------------------
   1.  RESOURCE   USE:
--------------------------------------------------------------------------------

 getting new box info from bottom of inpcrd

 NATOM  =    3007 NTYPES =       9 NBONH =    2997 MBONA  =       9
 NTHETH =      25 MTHETA =      11 NPHIH =      43 MPHIA  =      24
 NHPARM =       0 NPARM  =       0 NNB   =    4079 NRES   =     998
 NBONA  =       9 NTHETA =      11 NPHIA =      24 NUMBND =      10
 NUMANG =      16 NPTRA  =      19 NATYP =       9 NPHB   =       1
 IFBOX  =       2 NMXRS  =      10 IFCAP =       0 NEXTRA =       0
 NCOPY  =       0

     BOX TYPE: TRUNCATED OCTAHEDRON
Note: ig = -1. Setting random seed to    98963 based on wallclock time in microseconds
      and disabling the synchronization of random numbers between tasks
      to improve performance.

--------------------------------------------------------------------------------
   2.  CONTROL  DATA  FOR  THE  RUN
--------------------------------------------------------------------------------

default_name

General flags:
     imin    =       0, nmropt  =       0

Nature and format of input:
     ntx     =       1, irest   =       0, ntrx    =       1

Nature and format of output:
     ntxo    =       1, ntpr    =    1000, ntrx    =       1, ntwr    =   10000
     iwrap   =       0, ntwx    =    1000, ntwv    =       0, ntwe    =    1000
     ioutfm  =       1, ntwprt  =       0, idecomp =       0, rbornstat=      0

Potential function:
     ntf     =       2, ntb     =       2, igb     =       0, nsnb    =      25
     ipol    =       0, gbsa    =       0, iesp    =       0
     dielc   =   1.00000, cut     =   9.00000, intdiel =   1.00000

Frozen or restrained atoms:
     ibelly  =       0, ntr     =       1
     restraint_wt = 100.00000

Molecular dynamics:
     nstlim  =     10000, nscm    =         0, nrespa  =         1
     t       =   0.00000, dt      =   0.00200, vlimit  =  20.00000

Langevin dynamics temperature regulation:
     ig      =   98963
     temp0   = 298.00000, tempi   =   0.00000, gamma_ln=   3.00000

Pressure regulation:
     ntp     =       1
     pres0   =   1.00000, comp    =  44.60000, taup    =   1.00000

SHAKE:
     ntc     =       2, jfastw  =       0
     tol     =   0.00000

Ewald parameters:
     verbose =       0, ew_type =       0, nbflag  =       1, use_pme =       1
     vdwmeth =       1, eedmeth =       1, netfrc  =       1
     Box X =   36.117   Box Y =   36.117   Box Z =   36.117
     Alpha =  109.471   Beta  =  109.471   Gamma =  109.471
     NFFT1 =   36       NFFT2 =   36       NFFT3 =   36
     Cutoff=    9.000   Tol   =0.100E-04
     Ewald Coefficient =  0.30768
     Interpolation order =    4

    LOADING THE CONSTRAINED ATOMS AS GROUPS

   5.  REFERENCE ATOM COORDINATES

  defa
     Mask :1; matches     6 atoms

--------------------------------------------------------------------------------
   3.  ATOMIC COORDINATES AND VELOCITIES
--------------------------------------------------------------------------------

defa
 begin time read from input coords =     0.000 ps

 Number of triangulated 3-point waters found:      995

     Sum of charges from parm topology file =  -0.00000000
     Forcing neutrality...

--------------------------------------------------------------------------------
   4.  RESULTS
 NSTEP =        0   TIME(PS) =       0.000  TEMP(K) =     0.00  PRESS = -5419.1
 Etot   =    -13142.1435  EKtot   =         0.0000  EPtot      =    -13142.1435
 BOND   =         0.6052  ANGLE   =         2.5769  DIHED      =        10.6942
 1-4 NB =         2.6884  1-4 EEL =        45.6378  VDWAALS    =      2306.4774
 EELEC  =    -15511.4634  EHBOND  =         0.0000  RESTRAINT  =         0.6400
 EAMBER (non-restraint)  =    -13142.7836
 EKCMT  =         0.0000  VIRIAL  =      4243.3042  VOLUME     =     36265.8049
                                                    Density    =         0.8274
 Ewald error estimate:   0.9987E-04
 ------------------------------------------------------------------------------

      A V E R A G E S   O V E R   10000 S T E P S

 NSTEP =    10000   TIME(PS) =      20.000  TEMP(K) =   293.06  PRESS =  -189.4
 Etot   =     -7802.4105  EKtot   =      1754.0776  EPtot      =     -9556.4881
 BOND   =         3.1452  ANGLE   =         9.8882  DIHED      =        11.1158
 1-4 NB =         2.9640  1-4 EEL =        45.1530  VDWAALS    =      1437.0189
 EELEC  =    -11068.8777  EHBOND  =         0.0000  RESTRAINT  =         3.1044
 EAMBER (non-restraint)  =     -9559.5926
 EKCMT  =       872.8692  VIRIAL  =      1009.3312  VOLUME     =     31206.6417
                                                    Density    =         0.9629
 Ewald error estimate:   0.1919E-03
 ------------------------------------------------------------------------------

      R M S  F L U C T U A T I O N S

 NSTEP =    10000   TIME(PS) =      20.000  TEMP(K) =    26.60  PRESS =   454.0
 Etot   =       335.8981  EKtot   =       159.2417  EPtot      =       183.0697
 BOND   =         1.4942  ANGLE   =         2.5096  DIHED      =         1.2406
 1-4 NB =         0.6659  1-4 EEL =         1.7949  VDWAALS    =        85.5501
 EELEC  =       259.0283  EHBOND  =         0.0000  RESTRAINT  =         1.2830
 EAMBER (non-restraint)  =       181.7867
 EKCMT  =        77.6653  VIRIAL  =       287.6198  VOLUME     =      1198.7306
                                                    Density    =         0.0342
 Ewald error estimate:   0.1476E-03
 ------------------------------------------------------------------------------
