-------------------------------------------------------
          Amber 16 SANDER                              2016
          -------------------------------------------------------

  [-O]verwriting output

File Assignments:

 Here is the input file:

Equilibrate water in NPT
 &cntrl

  nmropt = 0,
  ntx    = 1,       irest  = 0,       ntrx   = 1,      ntxo   = 1,
  ntpr   = 1000,    ntwx   = 1000,    ntwv   = 0,      ntwe   = 1000,
  iwrap  = 0,       ioutfm = 1,

  ntf    = 2,       ntb    = 2,
  cut = 9.0,

  ibelly = 0,       ntr    = 1,
  restraintmask = ':1',
  restraint_wt = 100.0,

  imin   = 0,
  nstlim = 10000,
  nscm   = 1000,
  t      = 0.0,     dt     = 0.002,

  temp0     = 298.0,   tempi  = 0.0,
  ig        = -1,
  ntt       = 3,
  gamma_ln  = 3.0,

  ntp    = 1,       pres0  = 1.0,     comp   = 44.6,
  taup   = 1.0,

  ntc    = 2,       tol    = 0.000001, watnam = 'WAT ',

 &end

--------------------------------------------------------------------------------
   1.  RESOURCE   USE:
--------------------------------------------------------------------------------

 getting new box info from bottom of inpcrd

 NATOM  =    3073 NTYPES =       9 NBONH =    3063 MBONA  =       9
 NTHETH =      25 MTHETA =      11 NPHIH =      43 MPHIA  =      24
 NHPARM =       0 NPARM  =       0 NNB   =    4167 NRES   =    1020
 NBONA  =       9 NTHETA =      11 NPHIA =      24 NUMBND =      10
 NUMANG =      16 NPTRA  =      19 NATYP =       9 NPHB   =       1
 IFBOX  =       2 NMXRS  =      10 IFCAP =       0 NEXTRA =       0
 NCOPY  =       0

     BOX TYPE: TRUNCATED OCTAHEDRON
Note: ig = -1. Setting random seed to   128840 based on wallclock time in microseconds
      and disabling the synchronization of random numbers between tasks
      to improve performance.

--------------------------------------------------------------------------------
   2.  CONTROL  DATA  FOR  THE  RUN
--------------------------------------------------------------------------------

default_name

General flags:
     imin    =       0, nmropt  =       0

Nature and format of input:
     ntx     =       1, irest   =       0, ntrx    =       1

Nature and format of output:
     ntxo    =       1, ntpr    =    1000, ntrx    =       1, ntwr    =   10000
     iwrap   =       0, ntwx    =    1000, ntwv    =       0, ntwe    =    1000
     ioutfm  =       1, ntwprt  =       0, idecomp =       0, rbornstat=      0

Potential function:
     ntf     =       2, ntb     =       2, igb     =       0, nsnb    =      25
     ipol    =       0, gbsa    =       0, iesp    =       0
     dielc   =   1.00000, cut     =   9.00000, intdiel =   1.00000

Frozen or restrained atoms:
     ibelly  =       0, ntr     =       1
     restraint_wt = 100.00000

Molecular dynamics:
     nstlim  =     10000, nscm    =         0, nrespa  =         1
     t       =   0.00000, dt      =   0.00200, vlimit  =  20.00000

Langevin dynamics temperature regulation:
     ig      =  128840
     temp0   = 298.00000, tempi   =   0.00000, gamma_ln=   3.00000

Pressure regulation:
     ntp     =       1
     pres0   =   1.00000, comp    =  44.60000, taup    =   1.00000

SHAKE:
     ntc     =       2, jfastw  =       0
     tol     =   0.00000

Ewald parameters:
     verbose =       0, ew_type =       0, nbflag  =       1, use_pme =       1
     vdwmeth =       1, eedmeth =       1, netfrc  =       1
     Box X =   36.335   Box Y =   36.335   Box Z =   36.335
     Alpha =  109.471   Beta  =  109.471   Gamma =  109.471
     NFFT1 =   36       NFFT2 =   36       NFFT3 =   36
     Cutoff=    9.000   Tol   =0.100E-04
     Ewald Coefficient =  0.30768
     Interpolation order =    4

    LOADING THE CONSTRAINED ATOMS AS GROUPS

   5.  REFERENCE ATOM COORDINATES

  defa
     Mask :1; matches     6 atoms

--------------------------------------------------------------------------------
   3.  ATOMIC COORDINATES AND VELOCITIES
--------------------------------------------------------------------------------

defa
 begin time read from input coords =     0.000 ps

 Number of triangulated 3-point waters found:     1017

     Sum of charges from parm topology file =  -0.00000000
     Forcing neutrality...

--------------------------------------------------------------------------------
   4.  RESULTS
 NSTEP =        0   TIME(PS) =       0.000  TEMP(K) =     0.00  PRESS = -5029.0
 Etot   =    -13459.6823  EKtot   =         0.0000  EPtot      =    -13459.6823
 BOND   =         0.5874  ANGLE   =         1.1344  DIHED      =         8.4804
 1-4 NB =         2.7064  1-4 EEL =        45.8082  VDWAALS    =      2433.4666
 EELEC  =    -15952.0301  EHBOND  =         0.0000  RESTRAINT  =         0.1642
 EAMBER (non-restraint)  =    -13459.8466
 EKCMT  =         0.0000  VIRIAL  =      4009.5124  VOLUME     =     36926.2957
                                                    Density    =         0.8304
 Ewald error estimate:   0.5909E-04
 ------------------------------------------------------------------------------

      A V E R A G E S   O V E R   10000 S T E P S

 NSTEP =    10000   TIME(PS) =      20.000  TEMP(K) =   293.29  PRESS =  -190.4
 Etot   =     -7965.6361  EKtot   =      1793.9514  EPtot      =     -9759.5875
 BOND   =         3.2664  ANGLE   =         8.3338  DIHED      =        10.6756
 1-4 NB =         3.1980  1-4 EEL =        46.0235  VDWAALS    =      1461.1070
 EELEC  =    -11295.2904  EHBOND  =         0.0000  RESTRAINT  =         3.0986
 EAMBER (non-restraint)  =     -9762.6861
 EKCMT  =       892.6734  VIRIAL  =      1032.2700  VOLUME     =     31788.7727
                                                    Density    =         0.9659
 Ewald error estimate:   0.1875E-03
 ------------------------------------------------------------------------------

      R M S  F L U C T U A T I O N S

 NSTEP =    10000   TIME(PS) =      20.000  TEMP(K) =    26.27  PRESS =   457.5
 Etot   =       343.8853  EKtot   =       160.6559  EPtot      =       190.5087
 BOND   =         1.5338  ANGLE   =         2.3128  DIHED      =         1.0577
 1-4 NB =         0.7350  1-4 EEL =         2.0696  VDWAALS    =        89.1954
 EELEC  =       270.4414  EHBOND  =         0.0000  RESTRAINT  =         1.2486
 EAMBER (non-restraint)  =       189.2602
 EKCMT  =        78.5136  VIRIAL  =       298.9726  VOLUME     =      1189.1599
                                                    Density    =         0.0334
 Ewald error estimate:   0.1431E-03
 ------------------------------------------------------------------------------
