-------------------------------------------------------
          Amber 16 SANDER                              2016
          -------------------------------------------------------

  [-O]verwriting output

File Assignments:

 Here is the input file:

Equilibrate water in NPT
 &cntrl

  nmropt = 0,
  ntx    = 1,       irest  = 0,       ntrx   = 1,      ntxo   = 1,
  ntpr   = 1000,    ntwx   = 1000,    ntwv   = 0,      ntwe   = 1000,
  iwrap  = 0,       ioutfm = 1,

  ntf    = 2,       ntb    = 2,
  cut = 9.0,

  ibelly = 0,       ntr    = 1,
  restraintmask = ':1',
  restraint_wt = 100.0,

  imin   = 0,
  nstlim = 10000,
  nscm   = 1000,
  t      = 0.0,     dt     = 0.002,

  temp0     = 298.0,   tempi  = 0.0,
  ig        = -1,
  ntt       = 3,
  gamma_ln  = 3.0,

  ntp    = 1,       pres0  = 1.0,     comp   = 44.6,
  taup   = 1.0,

  ntc    = 2,       tol    = 0.000001, watnam = 'WAT ',

 &end

--------------------------------------------------------------------------------
   1.  RESOURCE   USE:
--------------------------------------------------------------------------------

 getting new box info from bottom of inpcrd

 NATOM  =    3136 NTYPES =       9 NBONH =    3126 MBONA  =       9
 NTHETH =      25 MTHETA =      11 NPHIH =      43 MPHIA  =      24
 NHPARM =       0 NPARM  =       0 NNB   =    4251 NRES   =    1041
 NBONA  =       9 NTHETA =      11 NPHIA =      24 NUMBND =      10
 NUMANG =      16 NPTRA  =      19 NATYP =       9 NPHB   =       1
 IFBOX  =       2 NMXRS  =      10 IFCAP =       0 NEXTRA =       0
 NCOPY  =       0

     BOX TYPE: TRUNCATED OCTAHEDRON
Note: ig = -1. Setting random seed to   168227 based on wallclock time in microseconds
      and disabling the synchronization of random numbers between tasks
      to improve performance.

--------------------------------------------------------------------------------
   2.  CONTROL  DATA  FOR  THE  RUN
--------------------------------------------------------------------------------

default_name

General flags:
     imin    =       0, nmropt  =       0

Nature and format of input:
     ntx     =       1, irest   =       0, ntrx    =       1

Nature and format of output:
     ntxo    =       1, ntpr    =    1000, ntrx    =       1, ntwr    =   10000
     iwrap   =       0, ntwx    =    1000, ntwv    =       0, ntwe    =    1000
     ioutfm  =       1, ntwprt  =       0, idecomp =       0, rbornstat=      0

Potential function:
     ntf     =       2, ntb     =       2, igb     =       0, nsnb    =      25
     ipol    =       0, gbsa    =       0, iesp    =       0
     dielc   =   1.00000, cut     =   9.00000, intdiel =   1.00000

Frozen or restrained atoms:
     ibelly  =       0, ntr     =       1
     restraint_wt = 100.00000

Molecular dynamics:
     nstlim  =     10000, nscm    =         0, nrespa  =         1
     t       =   0.00000, dt      =   0.00200, vlimit  =  20.00000

Langevin dynamics temperature regulation:
     ig      =  168227
     temp0   = 298.00000, tempi   =   0.00000, gamma_ln=   3.00000

Pressure regulation:
     ntp     =       1
     pres0   =   1.00000, comp    =  44.60000, taup    =   1.00000

SHAKE:
     ntc     =       2, jfastw  =       0
     tol     =   0.00000

Ewald parameters:
     verbose =       0, ew_type =       0, nbflag  =       1, use_pme =       1
     vdwmeth =       1, eedmeth =       1, netfrc  =       1
     Box X =   36.497   Box Y =   36.497   Box Z =   36.497
     Alpha =  109.471   Beta  =  109.471   Gamma =  109.471
     NFFT1 =   36       NFFT2 =   36       NFFT3 =   36
     Cutoff=    9.000   Tol   =0.100E-04
     Ewald Coefficient =  0.30768
     Interpolation order =    4

    LOADING THE CONSTRAINED ATOMS AS GROUPS

   5.  REFERENCE ATOM COORDINATES

  defa
     Mask :1; matches     6 atoms

--------------------------------------------------------------------------------
   3.  ATOMIC COORDINATES AND VELOCITIES
--------------------------------------------------------------------------------

defa
 begin time read from input coords =     0.000 ps

 Number of triangulated 3-point waters found:     1038

     Sum of charges from parm topology file =  -0.00000000
     Forcing neutrality...

--------------------------------------------------------------------------------
   4.  RESULTS
 NSTEP =        0   TIME(PS) =       0.000  TEMP(K) =     0.00  PRESS = -5040.1
 Etot   =    -13681.5513  EKtot   =         0.0000  EPtot      =    -13681.5513
 BOND   =         0.4798  ANGLE   =         0.7135  DIHED      =         8.3979
 1-4 NB =         3.0104  1-4 EEL =        46.0033  VDWAALS    =      2458.0650
 EELEC  =    -16198.2895  EHBOND  =         0.0000  RESTRAINT  =         0.0683
 EAMBER (non-restraint)  =    -13681.6196
 EKCMT  =         0.0000  VIRIAL  =      4072.5384  VOLUME     =     37423.5581
                                                    Density    =         0.8362
 Ewald error estimate:   0.1386E-03
 ------------------------------------------------------------------------------

      A V E R A G E S   O V E R   10000 S T E P S

 NSTEP =    10000   TIME(PS) =      20.000  TEMP(K) =   292.25  PRESS =  -183.5
 Etot   =     -8132.2144  EKtot   =      1824.1696  EPtot      =     -9956.3840
 BOND   =         2.9629  ANGLE   =         8.1453  DIHED      =        11.1275
 1-4 NB =         3.1899  1-4 EEL =        45.5374  VDWAALS    =      1491.9267
 EELEC  =    -11522.3150  EHBOND  =         0.0000  RESTRAINT  =         3.0413
 EAMBER (non-restraint)  =     -9959.4253
 EKCMT  =       910.5488  VIRIAL  =      1047.3387  VOLUME     =     32527.3051
                                                    Density    =         0.9635
 Ewald error estimate:   0.1853E-03
 ------------------------------------------------------------------------------

      R M S  F L U C T U A T I O N S

 NSTEP =    10000   TIME(PS) =      20.000  TEMP(K) =    26.40  PRESS =   420.9
 Etot   =       350.9956  EKtot   =       164.7734  EPtot      =       193.4551
 BOND   =         1.4230  ANGLE   =         2.2573  DIHED      =         1.1552
 1-4 NB =         0.7091  1-4 EEL =         1.9437  VDWAALS    =        94.2792
 EELEC  =       275.6275  EHBOND  =         0.0000  RESTRAINT  =         1.2975
 EAMBER (non-restraint)  =       192.1576
 EKCMT  =        80.2455  VIRIAL  =       277.1336  VOLUME     =      1291.4492
                                                    Density    =         0.0360
 Ewald error estimate:   0.1352E-03
 ------------------------------------------------------------------------------
