-------------------------------------------------------
          Amber 16 SANDER                              2016
          -------------------------------------------------------

  [-O]verwriting output

File Assignments:

 Here is the input file:

constant temperature
&cntrl
ntxo=1,
imin = 0, nstlim = 4000, irest = 1, ntx = 5, dt = 0.002,
ntt = 1, temp0 = 300.0, tautp = 1.0,
ntb = 1,
ntc = 2, ntf = 2,
ioutfm = 1, iwrap = 1,
ntwe = 800, ntwx = 800, ntpr = 400,
ntr = 1, restraint_wt = 10.00,
restraintmask="!:WAT,HOH,T3P,T4P",
/

--------------------------------------------------------------------------------
   1.  RESOURCE   USE:
--------------------------------------------------------------------------------

 getting new box info from bottom of inpcrd

 NATOM  =    3001 NTYPES =       9 NBONH =    2991 MBONA  =       9
 NTHETH =      25 MTHETA =      11 NPHIH =      43 MPHIA  =      24
 NHPARM =       0 NPARM  =       0 NNB   =    4071 NRES   =     996
 NBONA  =       9 NTHETA =      11 NPHIA =      24 NUMBND =      10
 NUMANG =      16 NPTRA  =      20 NATYP =       9 NPHB   =       1
 IFBOX  =       1 NMXRS  =      10 IFCAP =       0 NEXTRA =       0
 NCOPY  =       0

     BOX TYPE: RECTILINEAR

--------------------------------------------------------------------------------
   2.  CONTROL  DATA  FOR  THE  RUN
--------------------------------------------------------------------------------

ACE

General flags:
     imin    =       0, nmropt  =       0

Nature and format of input:
     ntx     =       5, irest   =       1, ntrx    =       1

Nature and format of output:
     ntxo    =       1, ntpr    =     400, ntrx    =       1, ntwr    =    4000
     iwrap   =       1, ntwx    =     800, ntwv    =       0, ntwe    =     800
     ioutfm  =       1, ntwprt  =       0, idecomp =       0, rbornstat=      0

Potential function:
     ntf     =       2, ntb     =       1, igb     =       0, nsnb    =      25
     ipol    =       0, gbsa    =       0, iesp    =       0
     dielc   =   1.00000, cut     =   8.00000, intdiel =   1.00000

Frozen or restrained atoms:
     ibelly  =       0, ntr     =       1
     restraint_wt =  10.00000

Molecular dynamics:
     nstlim  =      4000, nscm    =         0, nrespa  =         1
     t       =   0.00000, dt      =   0.00200, vlimit  =  20.00000

Berendsen (weak-coupling) temperature regulation:
     temp0   = 300.00000, tempi   =   0.00000, tautp   =   1.00000

SHAKE:
     ntc     =       2, jfastw  =       0
     tol     =   0.00001

Ewald parameters:
     verbose =       0, ew_type =       0, nbflag  =       1, use_pme =       1
     vdwmeth =       1, eedmeth =       1, netfrc  =       1
     Box X =   37.435   Box Y =   35.267   Box Z =   33.152
     Alpha =   90.000   Beta  =   90.000   Gamma =   90.000
     NFFT1 =   40       NFFT2 =   36       NFFT3 =   36
     Cutoff=    8.000   Tol   =0.100E-04
     Ewald Coefficient =  0.34864
     Interpolation order =    4

    LOADING THE CONSTRAINED ATOMS AS GROUPS

   5.  REFERENCE ATOM COORDINATES

  ACE
     Mask !:WAT,HOH,T3P,T4P; matches    22 atoms

--------------------------------------------------------------------------------
   3.  ATOMIC COORDINATES AND VELOCITIES
--------------------------------------------------------------------------------

ACE
 begin time read from input coords =     2.000 ps

 Number of triangulated 3-point waters found:      993

     Sum of charges from parm topology file =  -0.00000000
     Forcing neutrality...

--------------------------------------------------------------------------------
   4.  RESULTS
 NSTEP =      400   TIME(PS) =       2.800  TEMP(K) =   202.74  PRESS =     0.0
 Etot   =     -8876.2174  EKtot   =      1211.0817  EPtot      =    -10087.2991
 BOND   =         0.9172  ANGLE   =         5.8502  DIHED      =        17.3486
 1-4 NB =         2.5518  1-4 EEL =        48.0701  VDWAALS    =      1770.8459
 EELEC  =    -11936.8527  EHBOND  =         0.0000  RESTRAINT  =         3.9697
 EAMBER (non-restraint)  =    -10091.2688
 Ewald error estimate:   0.2023E-03
 ------------------------------------------------------------------------------

      A V E R A G E S   O V E R    4000 S T E P S

 NSTEP =     4000   TIME(PS) =      10.000  TEMP(K) =   258.01  PRESS =     0.0
 Etot   =     -8006.0612  EKtot   =      1541.2367  EPtot      =     -9547.2979
 BOND   =         1.9893  ANGLE   =         7.2486  DIHED      =        17.3969
 1-4 NB =         2.3971  1-4 EEL =        45.9575  VDWAALS    =      1553.9693
 EELEC  =    -11180.8161  EHBOND  =         0.0000  RESTRAINT  =         4.5595
 EAMBER (non-restraint)  =     -9551.8574
 Ewald error estimate:   0.1452E-03
 ------------------------------------------------------------------------------

      R M S  F L U C T U A T I O N S

 NSTEP =     4000   TIME(PS) =      10.000  TEMP(K) =    32.52  PRESS =     0.0
 Etot   =       534.1587  EKtot   =       194.2695  EPtot      =       343.1429
 BOND   =         0.9676  ANGLE   =         1.5267  DIHED      =         0.6897
 1-4 NB =         0.3639  1-4 EEL =         1.3932  VDWAALS    =       137.2880
 EELEC  =       473.2123  EHBOND  =         0.0000  RESTRAINT  =         1.2658
 EAMBER (non-restraint)  =       341.8771
 Ewald error estimate:   0.1052E-03
 ------------------------------------------------------------------------------
