-------------------------------------------------------
          Amber 16 SANDER                              2016
          -------------------------------------------------------

  [-O]verwriting output

File Assignments:

 Here is the input file:

Equilibrate water in NPT
 &cntrl

  nmropt = 0,
  ntx    = 1,       irest  = 0,       ntrx   = 1,      ntxo   = 1,
  ntpr   = 1000,    ntwx   = 1000,    ntwv   = 0,      ntwe   = 1000,
  iwrap  = 0,       ioutfm = 1,

  ntf    = 2,       ntb    = 2,
  cut = 9.0,

  ibelly = 0,       ntr    = 1,
  restraintmask = ':1',
  restraint_wt = 100.0,

  imin   = 0,
  nstlim = 10000,
  nscm   = 1000,
  t      = 0.0,     dt     = 0.002,

  temp0     = 298.0,   tempi  = 0.0,
  ig        = -1,
  ntt       = 3,
  gamma_ln  = 3.0,

  ntp    = 1,       pres0  = 1.0,     comp   = 44.6,
  taup   = 1.0,

  ntc    = 2,       tol    = 0.000001, watnam = 'WAT ',

 &end

--------------------------------------------------------------------------------
   1.  RESOURCE   USE:
--------------------------------------------------------------------------------

 getting new box info from bottom of inpcrd

 NATOM  =    3055 NTYPES =       9 NBONH =    3045 MBONA  =       9
 NTHETH =      25 MTHETA =      11 NPHIH =      43 MPHIA  =      24
 NHPARM =       0 NPARM  =       0 NNB   =    4143 NRES   =    1014
 NBONA  =       9 NTHETA =      11 NPHIA =      24 NUMBND =      10
 NUMANG =      16 NPTRA  =      19 NATYP =       9 NPHB   =       1
 IFBOX  =       2 NMXRS  =      10 IFCAP =       0 NEXTRA =       0
 NCOPY  =       0

     BOX TYPE: TRUNCATED OCTAHEDRON
Note: ig = -1. Setting random seed to   365742 based on wallclock time in microseconds
      and disabling the synchronization of random numbers between tasks
      to improve performance.

--------------------------------------------------------------------------------
   2.  CONTROL  DATA  FOR  THE  RUN
--------------------------------------------------------------------------------

default_name

General flags:
     imin    =       0, nmropt  =       0

Nature and format of input:
     ntx     =       1, irest   =       0, ntrx    =       1

Nature and format of output:
     ntxo    =       1, ntpr    =    1000, ntrx    =       1, ntwr    =   10000
     iwrap   =       0, ntwx    =    1000, ntwv    =       0, ntwe    =    1000
     ioutfm  =       1, ntwprt  =       0, idecomp =       0, rbornstat=      0

Potential function:
     ntf     =       2, ntb     =       2, igb     =       0, nsnb    =      25
     ipol    =       0, gbsa    =       0, iesp    =       0
     dielc   =   1.00000, cut     =   9.00000, intdiel =   1.00000

Frozen or restrained atoms:
     ibelly  =       0, ntr     =       1
     restraint_wt = 100.00000

Molecular dynamics:
     nstlim  =     10000, nscm    =         0, nrespa  =         1
     t       =   0.00000, dt      =   0.00200, vlimit  =  20.00000

Langevin dynamics temperature regulation:
     ig      =  365742
     temp0   = 298.00000, tempi   =   0.00000, gamma_ln=   3.00000

Pressure regulation:
     ntp     =       1
     pres0   =   1.00000, comp    =  44.60000, taup    =   1.00000

SHAKE:
     ntc     =       2, jfastw  =       0
     tol     =   0.00000

Ewald parameters:
     verbose =       0, ew_type =       0, nbflag  =       1, use_pme =       1
     vdwmeth =       1, eedmeth =       1, netfrc  =       1
     Box X =   36.274   Box Y =   36.274   Box Z =   36.274
     Alpha =  109.471   Beta  =  109.471   Gamma =  109.471
     NFFT1 =   36       NFFT2 =   36       NFFT3 =   36
     Cutoff=    9.000   Tol   =0.100E-04
     Ewald Coefficient =  0.30768
     Interpolation order =    4

    LOADING THE CONSTRAINED ATOMS AS GROUPS

   5.  REFERENCE ATOM COORDINATES

  defa
     Mask :1; matches     6 atoms

--------------------------------------------------------------------------------
   3.  ATOMIC COORDINATES AND VELOCITIES
--------------------------------------------------------------------------------

defa
 begin time read from input coords =     0.000 ps

 Number of triangulated 3-point waters found:     1011

     Sum of charges from parm topology file =  -0.00000000
     Forcing neutrality...

--------------------------------------------------------------------------------
   4.  RESULTS
 NSTEP =        0   TIME(PS) =       0.000  TEMP(K) =     0.00  PRESS = -5501.7
 Etot   =    -13295.2092  EKtot   =         0.0000  EPtot      =    -13295.2092
 BOND   =         0.7559  ANGLE   =         4.3761  DIHED      =        12.5920
 1-4 NB =         2.3748  1-4 EEL =        44.7325  VDWAALS    =      2318.8925
 EELEC  =    -15679.3403  EHBOND  =         0.0000  RESTRAINT  =         0.4073
 EAMBER (non-restraint)  =    -13295.6164
 EKCMT  =         0.0000  VIRIAL  =      4364.7468  VOLUME     =     36743.5067
                                                    Density    =         0.8297
 Ewald error estimate:   0.7208E-04
 ------------------------------------------------------------------------------

      A V E R A G E S   O V E R   10000 S T E P S

 NSTEP =    10000   TIME(PS) =      20.000  TEMP(K) =   292.52  PRESS =  -193.6
 Etot   =     -7923.7503  EKtot   =      1778.7795  EPtot      =     -9702.5298
 BOND   =         3.0802  ANGLE   =         8.3641  DIHED      =        12.1113
 1-4 NB =         2.9551  1-4 EEL =        46.0909  VDWAALS    =      1459.5941
 EELEC  =    -11237.6545  EHBOND  =         0.0000  RESTRAINT  =         2.9289
 EAMBER (non-restraint)  =     -9705.4587
 EKCMT  =       886.2872  VIRIAL  =      1027.3500  VOLUME     =     31744.9571
                                                    Density    =         0.9616
 Ewald error estimate:   0.1906E-03
 ------------------------------------------------------------------------------

      R M S  F L U C T U A T I O N S

 NSTEP =    10000   TIME(PS) =      20.000  TEMP(K) =    26.04  PRESS =   463.0
 Etot   =       333.6914  EKtot   =       158.3206  EPtot      =       181.7810
 BOND   =         1.4222  ANGLE   =         2.2425  DIHED      =         1.4485
 1-4 NB =         0.7013  1-4 EEL =         2.0329  VDWAALS    =        88.4121
 EELEC  =       259.6899  EHBOND  =         0.0000  RESTRAINT  =         1.1957
 EAMBER (non-restraint)  =       180.5853
 EKCMT  =        78.3881  VIRIAL  =       298.6565  VOLUME     =      1193.4811
                                                    Density    =         0.0336
 Ewald error estimate:   0.1389E-03
 ------------------------------------------------------------------------------
