-------------------------------------------------------
          Amber 16 SANDER                              2016
          -------------------------------------------------------

  [-O]verwriting output

File Assignments:

 Here is the input file:

constant temperature
&cntrl
ntxo=1,
imin = 0, nstlim = 4000, irest = 1, ntx = 5, dt = 0.002,
ntt = 1, temp0 = 300.0, tautp = 1.0,
ntb = 1,
ntc = 2, ntf = 2,
ioutfm = 1, iwrap = 1,
ntwe = 800, ntwx = 800, ntpr = 400,
ntr = 1, restraint_wt = 10.00,
restraintmask="!:WAT,HOH,T3P,T4P",
/

--------------------------------------------------------------------------------
   1.  RESOURCE   USE:
--------------------------------------------------------------------------------

 getting new box info from bottom of inpcrd

 NATOM  =    2923 NTYPES =       9 NBONH =    2913 MBONA  =       9
 NTHETH =      25 MTHETA =      11 NPHIH =      43 MPHIA  =      24
 NHPARM =       0 NPARM  =       0 NNB   =    3967 NRES   =     970
 NBONA  =       9 NTHETA =      11 NPHIA =      24 NUMBND =      10
 NUMANG =      16 NPTRA  =      20 NATYP =       9 NPHB   =       1
 IFBOX  =       1 NMXRS  =      10 IFCAP =       0 NEXTRA =       0
 NCOPY  =       0

     BOX TYPE: RECTILINEAR

--------------------------------------------------------------------------------
   2.  CONTROL  DATA  FOR  THE  RUN
--------------------------------------------------------------------------------

ACE

General flags:
     imin    =       0, nmropt  =       0

Nature and format of input:
     ntx     =       5, irest   =       1, ntrx    =       1

Nature and format of output:
     ntxo    =       1, ntpr    =     400, ntrx    =       1, ntwr    =    4000
     iwrap   =       1, ntwx    =     800, ntwv    =       0, ntwe    =     800
     ioutfm  =       1, ntwprt  =       0, idecomp =       0, rbornstat=      0

Potential function:
     ntf     =       2, ntb     =       1, igb     =       0, nsnb    =      25
     ipol    =       0, gbsa    =       0, iesp    =       0
     dielc   =   1.00000, cut     =   8.00000, intdiel =   1.00000

Frozen or restrained atoms:
     ibelly  =       0, ntr     =       1
     restraint_wt =  10.00000

Molecular dynamics:
     nstlim  =      4000, nscm    =         0, nrespa  =         1
     t       =   0.00000, dt      =   0.00200, vlimit  =  20.00000

Berendsen (weak-coupling) temperature regulation:
     temp0   = 300.00000, tempi   =   0.00000, tautp   =   1.00000

SHAKE:
     ntc     =       2, jfastw  =       0
     tol     =   0.00001

Ewald parameters:
     verbose =       0, ew_type =       0, nbflag  =       1, use_pme =       1
     vdwmeth =       1, eedmeth =       1, netfrc  =       1
     Box X =   37.380   Box Y =   34.696   Box Z =   33.270
     Alpha =   90.000   Beta  =   90.000   Gamma =   90.000
     NFFT1 =   40       NFFT2 =   36       NFFT3 =   36
     Cutoff=    8.000   Tol   =0.100E-04
     Ewald Coefficient =  0.34864
     Interpolation order =    4

    LOADING THE CONSTRAINED ATOMS AS GROUPS

   5.  REFERENCE ATOM COORDINATES

  ACE
     Mask !:WAT,HOH,T3P,T4P; matches    22 atoms

--------------------------------------------------------------------------------
   3.  ATOMIC COORDINATES AND VELOCITIES
--------------------------------------------------------------------------------

ACE
 begin time read from input coords =     2.000 ps

 Number of triangulated 3-point waters found:      967

     Sum of charges from parm topology file =  -0.00000000
     Forcing neutrality...

--------------------------------------------------------------------------------
   4.  RESULTS
 NSTEP =      400   TIME(PS) =       2.800  TEMP(K) =   213.41  PRESS =     0.0
 Etot   =     -8631.7323  EKtot   =      1241.7411  EPtot      =     -9873.4734
 BOND   =         0.9679  ANGLE   =         6.0364  DIHED      =        12.8992
 1-4 NB =         2.8696  1-4 EEL =        43.3508  VDWAALS    =      1734.0921
 EELEC  =    -11678.9469  EHBOND  =         0.0000  RESTRAINT  =         5.2574
 EAMBER (non-restraint)  =     -9878.7308
 Ewald error estimate:   0.2455E-03
 ------------------------------------------------------------------------------

      A V E R A G E S   O V E R    4000 S T E P S

 NSTEP =     4000   TIME(PS) =      10.000  TEMP(K) =   259.15  PRESS =     0.0
 Etot   =     -7809.6560  EKtot   =      1507.8470  EPtot      =     -9317.5031
 BOND   =         2.5112  ANGLE   =         8.0985  DIHED      =        14.6203
 1-4 NB =         3.2099  1-4 EEL =        43.5034  VDWAALS    =      1507.7146
 EELEC  =    -10903.1035  EHBOND  =         0.0000  RESTRAINT  =         5.9426
 EAMBER (non-restraint)  =     -9323.4457
 Ewald error estimate:   0.1657E-03
 ------------------------------------------------------------------------------

      R M S  F L U C T U A T I O N S

 NSTEP =     4000   TIME(PS) =      10.000  TEMP(K) =    31.98  PRESS =     0.0
 Etot   =       505.6306  EKtot   =       186.0879  EPtot      =       322.3310
 BOND   =         1.3644  ANGLE   =         2.6889  DIHED      =         1.0419
 1-4 NB =         0.5526  1-4 EEL =         1.3268  VDWAALS    =       136.3413
 EELEC  =       449.9830  EHBOND  =         0.0000  RESTRAINT  =         1.8651
 EAMBER (non-restraint)  =       320.4659
 Ewald error estimate:   0.1187E-03
 ------------------------------------------------------------------------------
