-------------------------------------------------------
          Amber 16 SANDER                              2016
          -------------------------------------------------------

  [-O]verwriting output

File Assignments:

 Here is the input file:

Equilibrate water in NPT
 &cntrl

  nmropt = 0,
  ntx    = 1,       irest  = 0,       ntrx   = 1,      ntxo   = 1,
  ntpr   = 1000,    ntwx   = 1000,    ntwv   = 0,      ntwe   = 1000,
  iwrap  = 0,       ioutfm = 1,

  ntf    = 2,       ntb    = 2,
  cut = 9.0,

  ibelly = 0,       ntr    = 1,
  restraintmask = ':1',
  restraint_wt = 100.0,

  imin   = 0,
  nstlim = 10000,
  nscm   = 1000,
  t      = 0.0,     dt     = 0.002,

  temp0     = 298.0,   tempi  = 0.0,
  ig        = -1,
  ntt       = 3,
  gamma_ln  = 3.0,

  ntp    = 1,       pres0  = 1.0,     comp   = 44.6,
  taup   = 1.0,

  ntc    = 2,       tol    = 0.000001, watnam = 'WAT ',

 &end

--------------------------------------------------------------------------------
   1.  RESOURCE   USE:
--------------------------------------------------------------------------------

 getting new box info from bottom of inpcrd

 NATOM  =    3103 NTYPES =       9 NBONH =    3093 MBONA  =       9
 NTHETH =      25 MTHETA =      11 NPHIH =      43 MPHIA  =      24
 NHPARM =       0 NPARM  =       0 NNB   =    4207 NRES   =    1030
 NBONA  =       9 NTHETA =      11 NPHIA =      24 NUMBND =      10
 NUMANG =      16 NPTRA  =      19 NATYP =       9 NPHB   =       1
 IFBOX  =       2 NMXRS  =      10 IFCAP =       0 NEXTRA =       0
 NCOPY  =       0

     BOX TYPE: TRUNCATED OCTAHEDRON
Note: ig = -1. Setting random seed to   801273 based on wallclock time in microseconds
      and disabling the synchronization of random numbers between tasks
      to improve performance.

--------------------------------------------------------------------------------
   2.  CONTROL  DATA  FOR  THE  RUN
--------------------------------------------------------------------------------

default_name

General flags:
     imin    =       0, nmropt  =       0

Nature and format of input:
     ntx     =       1, irest   =       0, ntrx    =       1

Nature and format of output:
     ntxo    =       1, ntpr    =    1000, ntrx    =       1, ntwr    =   10000
     iwrap   =       0, ntwx    =    1000, ntwv    =       0, ntwe    =    1000
     ioutfm  =       1, ntwprt  =       0, idecomp =       0, rbornstat=      0

Potential function:
     ntf     =       2, ntb     =       2, igb     =       0, nsnb    =      25
     ipol    =       0, gbsa    =       0, iesp    =       0
     dielc   =   1.00000, cut     =   9.00000, intdiel =   1.00000

Frozen or restrained atoms:
     ibelly  =       0, ntr     =       1
     restraint_wt = 100.00000

Molecular dynamics:
     nstlim  =     10000, nscm    =         0, nrespa  =         1
     t       =   0.00000, dt      =   0.00200, vlimit  =  20.00000

Langevin dynamics temperature regulation:
     ig      =  801273
     temp0   = 298.00000, tempi   =   0.00000, gamma_ln=   3.00000

Pressure regulation:
     ntp     =       1
     pres0   =   1.00000, comp    =  44.60000, taup    =   1.00000

SHAKE:
     ntc     =       2, jfastw  =       0
     tol     =   0.00000

Ewald parameters:
     verbose =       0, ew_type =       0, nbflag  =       1, use_pme =       1
     vdwmeth =       1, eedmeth =       1, netfrc  =       1
     Box X =   36.441   Box Y =   36.441   Box Z =   36.441
     Alpha =  109.471   Beta  =  109.471   Gamma =  109.471
     NFFT1 =   36       NFFT2 =   36       NFFT3 =   36
     Cutoff=    9.000   Tol   =0.100E-04
     Ewald Coefficient =  0.30768
     Interpolation order =    4

    LOADING THE CONSTRAINED ATOMS AS GROUPS

   5.  REFERENCE ATOM COORDINATES

  defa
     Mask :1; matches     6 atoms

--------------------------------------------------------------------------------
   3.  ATOMIC COORDINATES AND VELOCITIES
--------------------------------------------------------------------------------

defa
 begin time read from input coords =     0.000 ps

 Number of triangulated 3-point waters found:     1027

     Sum of charges from parm topology file =  -0.00000000
     Forcing neutrality...

--------------------------------------------------------------------------------
   4.  RESULTS
 NSTEP =        0   TIME(PS) =       0.000  TEMP(K) =     0.00  PRESS = -5083.2
 Etot   =    -13558.9931  EKtot   =         0.0000  EPtot      =    -13558.9931
 BOND   =         0.6301  ANGLE   =         1.1517  DIHED      =         9.0474
 1-4 NB =         3.0114  1-4 EEL =        46.7776  VDWAALS    =      2431.7555
 EELEC  =    -16051.4793  EHBOND  =         0.0000  RESTRAINT  =         0.1126
 EAMBER (non-restraint)  =    -13559.1057
 EKCMT  =         0.0000  VIRIAL  =      4088.3636  VOLUME     =     37250.9264
                                                    Density    =         0.8312
 Ewald error estimate:   0.1614E-03
 ------------------------------------------------------------------------------

      A V E R A G E S   O V E R   10000 S T E P S

 NSTEP =    10000   TIME(PS) =      20.000  TEMP(K) =   293.20  PRESS =  -185.2
 Etot   =     -8048.8053  EKtot   =      1810.8602  EPtot      =     -9859.6655
 BOND   =         2.9999  ANGLE   =         8.3364  DIHED      =        10.5648
 1-4 NB =         3.2685  1-4 EEL =        45.7549  VDWAALS    =      1478.4699
 EELEC  =    -11412.2289  EHBOND  =         0.0000  RESTRAINT  =         3.1691
 EAMBER (non-restraint)  =     -9862.8345
 EKCMT  =       901.9644  VIRIAL  =      1039.2837  VOLUME     =     32135.6179
                                                    Density    =         0.9649
 Ewald error estimate:   0.1973E-03
 ------------------------------------------------------------------------------

      R M S  F L U C T U A T I O N S

 NSTEP =    10000   TIME(PS) =      20.000  TEMP(K) =    26.27  PRESS =   434.0
 Etot   =       342.9448  EKtot   =       162.2722  EPtot      =       186.7990
 BOND   =         1.4158  ANGLE   =         2.3754  DIHED      =         1.1137
 1-4 NB =         0.7578  1-4 EEL =         2.0098  VDWAALS    =        92.7720
 EELEC  =       270.0109  EHBOND  =         0.0000  RESTRAINT  =         1.3159
 EAMBER (non-restraint)  =       185.4831
 EKCMT  =        78.2143  VIRIAL  =       284.1323  VOLUME     =      1273.9159
                                                    Density    =         0.0354
 Ewald error estimate:   0.1493E-03
 ------------------------------------------------------------------------------
