-------------------------------------------------------
          Amber 16 SANDER                              2016
          -------------------------------------------------------

  [-O]verwriting output

File Assignments:

 Here is the input file:

Equilibrate water in NPT
 &cntrl

  nmropt = 0,
  ntx    = 1,       irest  = 0,       ntrx   = 1,      ntxo   = 1,
  ntpr   = 1000,    ntwx   = 1000,    ntwv   = 0,      ntwe   = 1000,
  iwrap  = 0,       ioutfm = 1,

  ntf    = 2,       ntb    = 2,
  cut = 9.0,

  ibelly = 0,       ntr    = 1,
  restraintmask = ':1',
  restraint_wt = 100.0,

  imin   = 0,
  nstlim = 10000,
  nscm   = 1000,
  t      = 0.0,     dt     = 0.002,

  temp0     = 298.0,   tempi  = 0.0,
  ig        = -1,
  ntt       = 3,
  gamma_ln  = 3.0,

  ntp    = 1,       pres0  = 1.0,     comp   = 44.6,
  taup   = 1.0,

  ntc    = 2,       tol    = 0.000001, watnam = 'WAT ',

 &end

--------------------------------------------------------------------------------
   1.  RESOURCE   USE:
--------------------------------------------------------------------------------

 getting new box info from bottom of inpcrd

 NATOM  =    3079 NTYPES =       9 NBONH =    3069 MBONA  =       9
 NTHETH =      25 MTHETA =      11 NPHIH =      43 MPHIA  =      24
 NHPARM =       0 NPARM  =       0 NNB   =    4175 NRES   =    1022
 NBONA  =       9 NTHETA =      11 NPHIA =      24 NUMBND =      10
 NUMANG =      16 NPTRA  =      19 NATYP =       9 NPHB   =       1
 IFBOX  =       2 NMXRS  =      10 IFCAP =       0 NEXTRA =       0
 NCOPY  =       0

     BOX TYPE: TRUNCATED OCTAHEDRON
Note: ig = -1. Setting random seed to   590367 based on wallclock time in microseconds
      and disabling the synchronization of random numbers between tasks
      to improve performance.

--------------------------------------------------------------------------------
   2.  CONTROL  DATA  FOR  THE  RUN
--------------------------------------------------------------------------------

default_name

General flags:
     imin    =       0, nmropt  =       0

Nature and format of input:
     ntx     =       1, irest   =       0, ntrx    =       1

Nature and format of output:
     ntxo    =       1, ntpr    =    1000, ntrx    =       1, ntwr    =   10000
     iwrap   =       0, ntwx    =    1000, ntwv    =       0, ntwe    =    1000
     ioutfm  =       1, ntwprt  =       0, idecomp =       0, rbornstat=      0

Potential function:
     ntf     =       2, ntb     =       2, igb     =       0, nsnb    =      25
     ipol    =       0, gbsa    =       0, iesp    =       0
     dielc   =   1.00000, cut     =   9.00000, intdiel =   1.00000

Frozen or restrained atoms:
     ibelly  =       0, ntr     =       1
     restraint_wt = 100.00000

Molecular dynamics:
     nstlim  =     10000, nscm    =         0, nrespa  =         1
     t       =   0.00000, dt      =   0.00200, vlimit  =  20.00000

Langevin dynamics temperature regulation:
     ig      =  590367
     temp0   = 298.00000, tempi   =   0.00000, gamma_ln=   3.00000

Pressure regulation:
     ntp     =       1
     pres0   =   1.00000, comp    =  44.60000, taup    =   1.00000

SHAKE:
     ntc     =       2, jfastw  =       0
     tol     =   0.00000

Ewald parameters:
     verbose =       0, ew_type =       0, nbflag  =       1, use_pme =       1
     vdwmeth =       1, eedmeth =       1, netfrc  =       1
     Box X =   36.331   Box Y =   36.331   Box Z =   36.331
     Alpha =  109.471   Beta  =  109.471   Gamma =  109.471
     NFFT1 =   36       NFFT2 =   36       NFFT3 =   36
     Cutoff=    9.000   Tol   =0.100E-04
     Ewald Coefficient =  0.30768
     Interpolation order =    4

    LOADING THE CONSTRAINED ATOMS AS GROUPS

   5.  REFERENCE ATOM COORDINATES

  defa
     Mask :1; matches     6 atoms

--------------------------------------------------------------------------------
   3.  ATOMIC COORDINATES AND VELOCITIES
--------------------------------------------------------------------------------

defa
 begin time read from input coords =     0.000 ps

 Number of triangulated 3-point waters found:     1019

     Sum of charges from parm topology file =  -0.00000000
     Forcing neutrality...

--------------------------------------------------------------------------------
   4.  RESULTS
 NSTEP =        0   TIME(PS) =       0.000  TEMP(K) =     0.00  PRESS = -5165.5
 Etot   =    -13463.7315  EKtot   =         0.0000  EPtot      =    -13463.7315
 BOND   =         0.9514  ANGLE   =         2.2924  DIHED      =        11.1847
 1-4 NB =         3.0761  1-4 EEL =        45.4074  VDWAALS    =      2407.9656
 EELEC  =    -15934.7892  EHBOND  =         0.0000  RESTRAINT  =         0.1803
 EAMBER (non-restraint)  =    -13463.9118
 EKCMT  =         0.0000  VIRIAL  =      4117.0601  VOLUME     =     36914.5451
                                                    Density    =         0.8323
 Ewald error estimate:   0.1156E-03
 ------------------------------------------------------------------------------

      A V E R A G E S   O V E R   10000 S T E P S

 NSTEP =    10000   TIME(PS) =      20.000  TEMP(K) =   293.17  PRESS =  -185.4
 Etot   =     -7999.2411  EKtot   =      1796.6849  EPtot      =     -9795.9260
 BOND   =         3.2119  ANGLE   =        10.0044  DIHED      =        11.1378
 1-4 NB =         3.0769  1-4 EEL =        43.9383  VDWAALS    =      1466.5567
 EELEC  =    -11336.9235  EHBOND  =         0.0000  RESTRAINT  =         3.0714
 EAMBER (non-restraint)  =     -9798.9974
 EKCMT  =       895.5041  VIRIAL  =      1031.6929  VOLUME     =     31762.1381
                                                    Density    =         0.9686
 Ewald error estimate:   0.1869E-03
 ------------------------------------------------------------------------------

      R M S  F L U C T U A T I O N S

 NSTEP =    10000   TIME(PS) =      20.000  TEMP(K) =    26.64  PRESS =   470.0
 Etot   =       342.1581  EKtot   =       163.2613  EPtot      =       186.3769
 BOND   =         1.4863  ANGLE   =         2.4965  DIHED      =         1.5022
 1-4 NB =         0.7066  1-4 EEL =         1.9243  VDWAALS    =        90.7954
 EELEC  =       268.0462  EHBOND  =         0.0000  RESTRAINT  =         1.2760
 EAMBER (non-restraint)  =       185.1009
 EKCMT  =        80.2457  VIRIAL  =       304.2948  VOLUME     =      1199.0125
                                                    Density    =         0.0338
 Ewald error estimate:   0.1418E-03
 ------------------------------------------------------------------------------
