-------------------------------------------------------
          Amber 16 SANDER                              2016
          -------------------------------------------------------

  [-O]verwriting output

File Assignments:

 Here is the input file:

Equilibrate water in NPT
 &cntrl

  nmropt = 0,
  ntx    = 1,       irest  = 0,       ntrx   = 1,      ntxo   = 1,
  ntpr   = 1000,    ntwx   = 1000,    ntwv   = 0,      ntwe   = 1000,
  iwrap  = 0,       ioutfm = 1,

  ntf    = 2,       ntb    = 2,
  cut = 9.0,

  ibelly = 0,       ntr    = 1,
  restraintmask = ':1',
  restraint_wt = 100.0,

  imin   = 0,
  nstlim = 10000,
  nscm   = 1000,
  t      = 0.0,     dt     = 0.002,

  temp0     = 298.0,   tempi  = 0.0,
  ig        = -1,
  ntt       = 3,
  gamma_ln  = 3.0,

  ntp    = 1,       pres0  = 1.0,     comp   = 44.6,
  taup   = 1.0,

  ntc    = 2,       tol    = 0.000001, watnam = 'WAT ',

 &end

--------------------------------------------------------------------------------
   1.  RESOURCE   USE:
--------------------------------------------------------------------------------

 getting new box info from bottom of inpcrd

 NATOM  =    2830 NTYPES =       9 NBONH =    2820 MBONA  =       9
 NTHETH =      25 MTHETA =      11 NPHIH =      43 MPHIA  =      24
 NHPARM =       0 NPARM  =       0 NNB   =    3843 NRES   =     939
 NBONA  =       9 NTHETA =      11 NPHIA =      24 NUMBND =      10
 NUMANG =      16 NPTRA  =      19 NATYP =       9 NPHB   =       1
 IFBOX  =       2 NMXRS  =      10 IFCAP =       0 NEXTRA =       0
 NCOPY  =       0

     BOX TYPE: TRUNCATED OCTAHEDRON
Note: ig = -1. Setting random seed to   571848 based on wallclock time in microseconds
      and disabling the synchronization of random numbers between tasks
      to improve performance.

--------------------------------------------------------------------------------
   2.  CONTROL  DATA  FOR  THE  RUN
--------------------------------------------------------------------------------

default_name

General flags:
     imin    =       0, nmropt  =       0

Nature and format of input:
     ntx     =       1, irest   =       0, ntrx    =       1

Nature and format of output:
     ntxo    =       1, ntpr    =    1000, ntrx    =       1, ntwr    =   10000
     iwrap   =       0, ntwx    =    1000, ntwv    =       0, ntwe    =    1000
     ioutfm  =       1, ntwprt  =       0, idecomp =       0, rbornstat=      0

Potential function:
     ntf     =       2, ntb     =       2, igb     =       0, nsnb    =      25
     ipol    =       0, gbsa    =       0, iesp    =       0
     dielc   =   1.00000, cut     =   9.00000, intdiel =   1.00000

Frozen or restrained atoms:
     ibelly  =       0, ntr     =       1
     restraint_wt = 100.00000

Molecular dynamics:
     nstlim  =     10000, nscm    =         0, nrespa  =         1
     t       =   0.00000, dt      =   0.00200, vlimit  =  20.00000

Langevin dynamics temperature regulation:
     ig      =  571848
     temp0   = 298.00000, tempi   =   0.00000, gamma_ln=   3.00000

Pressure regulation:
     ntp     =       1
     pres0   =   1.00000, comp    =  44.60000, taup    =   1.00000

SHAKE:
     ntc     =       2, jfastw  =       0
     tol     =   0.00000

Ewald parameters:
     verbose =       0, ew_type =       0, nbflag  =       1, use_pme =       1
     vdwmeth =       1, eedmeth =       1, netfrc  =       1
     Box X =   35.377   Box Y =   35.377   Box Z =   35.377
     Alpha =  109.471   Beta  =  109.471   Gamma =  109.471
     NFFT1 =   36       NFFT2 =   36       NFFT3 =   36
     Cutoff=    9.000   Tol   =0.100E-04
     Ewald Coefficient =  0.30768
     Interpolation order =    4

    LOADING THE CONSTRAINED ATOMS AS GROUPS

   5.  REFERENCE ATOM COORDINATES

  defa
     Mask :1; matches     6 atoms

--------------------------------------------------------------------------------
   3.  ATOMIC COORDINATES AND VELOCITIES
--------------------------------------------------------------------------------

defa
 begin time read from input coords =     0.000 ps

 Number of triangulated 3-point waters found:      936

     Sum of charges from parm topology file =  -0.00000000
     Forcing neutrality...

--------------------------------------------------------------------------------
   4.  RESULTS
 NSTEP =        0   TIME(PS) =       0.000  TEMP(K) =     0.00  PRESS = -5217.3
 Etot   =    -12366.6370  EKtot   =         0.0000  EPtot      =    -12366.6370
 BOND   =         0.8033  ANGLE   =         2.9356  DIHED      =        15.9970
 1-4 NB =         2.6257  1-4 EEL =        45.0387  VDWAALS    =      2209.6873
 EELEC  =    -14644.0914  EHBOND  =         0.0000  RESTRAINT  =         0.3668
 EAMBER (non-restraint)  =    -12367.0038
 EKCMT  =         0.0000  VIRIAL  =      3839.4824  VOLUME     =     34083.5925
                                                    Density    =         0.8286
 Ewald error estimate:   0.5901E-05
 ------------------------------------------------------------------------------

      A V E R A G E S   O V E R   10000 S T E P S

 NSTEP =    10000   TIME(PS) =      20.000  TEMP(K) =   292.41  PRESS =  -198.7
 Etot   =     -7352.6844  EKtot   =      1647.3436  EPtot      =     -9000.0280
 BOND   =         3.0965  ANGLE   =         8.0052  DIHED      =        11.3134
 1-4 NB =         3.2032  1-4 EEL =        45.9050  VDWAALS    =      1346.3014
 EELEC  =    -10421.1186  EHBOND  =         0.0000  RESTRAINT  =         3.2659
 EAMBER (non-restraint)  =     -9003.2939
 EKCMT  =       818.5183  VIRIAL  =       952.4880  VOLUME     =     29281.7073
                                                    Density    =         0.9661
 Ewald error estimate:   0.1822E-03
 ------------------------------------------------------------------------------

      R M S  F L U C T U A T I O N S

 NSTEP =    10000   TIME(PS) =      20.000  TEMP(K) =    26.03  PRESS =   450.7
 Etot   =       311.0195  EKtot   =       146.6566  EPtot      =       172.6459
 BOND   =         1.4549  ANGLE   =         2.1805  DIHED      =         1.7028
 1-4 NB =         0.7352  1-4 EEL =         2.0843  VDWAALS    =        85.9388
 EELEC  =       248.1616  EHBOND  =         0.0000  RESTRAINT  =         1.3229
 EAMBER (non-restraint)  =       171.3230
 EKCMT  =        71.6137  VIRIAL  =       271.9594  VOLUME     =      1254.7004
                                                    Density    =         0.0386
 Ewald error estimate:   0.1362E-03
 ------------------------------------------------------------------------------
