-------------------------------------------------------
          Amber 16 SANDER                              2016
          -------------------------------------------------------

  [-O]verwriting output

File Assignments:

 Here is the input file:

Equilibrate water in NPT
 &cntrl

  nmropt = 0,
  ntx    = 1,       irest  = 0,       ntrx   = 1,      ntxo   = 1,
  ntpr   = 1000,    ntwx   = 1000,    ntwv   = 0,      ntwe   = 1000,
  iwrap  = 0,       ioutfm = 1,

  ntf    = 2,       ntb    = 2,
  cut = 9.0,

  ibelly = 0,       ntr    = 1,
  restraintmask = ':1',
  restraint_wt = 100.0,

  imin   = 0,
  nstlim = 10000,
  nscm   = 1000,
  t      = 0.0,     dt     = 0.002,

  temp0     = 298.0,   tempi  = 0.0,
  ig        = -1,
  ntt       = 3,
  gamma_ln  = 3.0,

  ntp    = 1,       pres0  = 1.0,     comp   = 44.6,
  taup   = 1.0,

  ntc    = 2,       tol    = 0.000001, watnam = 'WAT ',

 &end

--------------------------------------------------------------------------------
   1.  RESOURCE   USE:
--------------------------------------------------------------------------------

 getting new box info from bottom of inpcrd

 NATOM  =    2716 NTYPES =       9 NBONH =    2706 MBONA  =       9
 NTHETH =      25 MTHETA =      11 NPHIH =      43 MPHIA  =      24
 NHPARM =       0 NPARM  =       0 NNB   =    3691 NRES   =     901
 NBONA  =       9 NTHETA =      11 NPHIA =      24 NUMBND =      10
 NUMANG =      16 NPTRA  =      19 NATYP =       9 NPHB   =       1
 IFBOX  =       2 NMXRS  =      10 IFCAP =       0 NEXTRA =       0
 NCOPY  =       0

     BOX TYPE: TRUNCATED OCTAHEDRON
Note: ig = -1. Setting random seed to    13069 based on wallclock time in microseconds
      and disabling the synchronization of random numbers between tasks
      to improve performance.

--------------------------------------------------------------------------------
   2.  CONTROL  DATA  FOR  THE  RUN
--------------------------------------------------------------------------------

default_name

General flags:
     imin    =       0, nmropt  =       0

Nature and format of input:
     ntx     =       1, irest   =       0, ntrx    =       1

Nature and format of output:
     ntxo    =       1, ntpr    =    1000, ntrx    =       1, ntwr    =   10000
     iwrap   =       0, ntwx    =    1000, ntwv    =       0, ntwe    =    1000
     ioutfm  =       1, ntwprt  =       0, idecomp =       0, rbornstat=      0

Potential function:
     ntf     =       2, ntb     =       2, igb     =       0, nsnb    =      25
     ipol    =       0, gbsa    =       0, iesp    =       0
     dielc   =   1.00000, cut     =   9.00000, intdiel =   1.00000

Frozen or restrained atoms:
     ibelly  =       0, ntr     =       1
     restraint_wt = 100.00000

Molecular dynamics:
     nstlim  =     10000, nscm    =         0, nrespa  =         1
     t       =   0.00000, dt      =   0.00200, vlimit  =  20.00000

Langevin dynamics temperature regulation:
     ig      =   13069
     temp0   = 298.00000, tempi   =   0.00000, gamma_ln=   3.00000

Pressure regulation:
     ntp     =       1
     pres0   =   1.00000, comp    =  44.60000, taup    =   1.00000

SHAKE:
     ntc     =       2, jfastw  =       0
     tol     =   0.00000

Ewald parameters:
     verbose =       0, ew_type =       0, nbflag  =       1, use_pme =       1
     vdwmeth =       1, eedmeth =       1, netfrc  =       1
     Box X =   34.861   Box Y =   34.861   Box Z =   34.861
     Alpha =  109.471   Beta  =  109.471   Gamma =  109.471
     NFFT1 =   36       NFFT2 =   36       NFFT3 =   36
     Cutoff=    9.000   Tol   =0.100E-04
     Ewald Coefficient =  0.30768
     Interpolation order =    4

    LOADING THE CONSTRAINED ATOMS AS GROUPS

   5.  REFERENCE ATOM COORDINATES

  defa
     Mask :1; matches     6 atoms

--------------------------------------------------------------------------------
   3.  ATOMIC COORDINATES AND VELOCITIES
--------------------------------------------------------------------------------

defa
 begin time read from input coords =     0.000 ps

 Number of triangulated 3-point waters found:      898

     Sum of charges from parm topology file =  -0.00000000
     Forcing neutrality...

--------------------------------------------------------------------------------
   4.  RESULTS
 NSTEP =        0   TIME(PS) =       0.000  TEMP(K) =     0.00  PRESS = -4644.9
 Etot   =    -11912.5868  EKtot   =         0.0000  EPtot      =    -11912.5868
 BOND   =         0.9041  ANGLE   =         3.7663  DIHED      =         9.8814
 1-4 NB =         2.0949  1-4 EEL =        42.2493  VDWAALS    =      2184.8123
 EELEC  =    -14156.3449  EHBOND  =         0.0000  RESTRAINT  =         0.0498
 EAMBER (non-restraint)  =    -11912.6366
 EKCMT  =         0.0000  VIRIAL  =      3270.6963  VOLUME     =     32612.4851
                                                    Density    =         0.8311
 Ewald error estimate:   0.2283E-03
 ------------------------------------------------------------------------------

      A V E R A G E S   O V E R   10000 S T E P S

 NSTEP =    10000   TIME(PS) =      20.000  TEMP(K) =   292.79  PRESS =  -199.2
 Etot   =     -7038.8293  EKtot   =      1583.1424  EPtot      =     -8621.9717
 BOND   =         3.0720  ANGLE   =         9.6295  DIHED      =        11.6080
 1-4 NB =         2.9956  1-4 EEL =        44.0805  VDWAALS    =      1294.3469
 EELEC  =     -9990.6451  EHBOND  =         0.0000  RESTRAINT  =         2.9409
 EAMBER (non-restraint)  =     -8624.9126
 EKCMT  =       786.6549  VIRIAL  =       915.1507  VOLUME     =     28290.2429
                                                    Density    =         0.9599
 Ewald error estimate:   0.2138E-03
 ------------------------------------------------------------------------------

      R M S  F L U C T U A T I O N S

 NSTEP =    10000   TIME(PS) =      20.000  TEMP(K) =    26.62  PRESS =   390.2
 Etot   =       308.4137  EKtot   =       143.9650  EPtot      =       173.5472
 BOND   =         1.4395  ANGLE   =         2.5382  DIHED      =         1.7296
 1-4 NB =         0.7875  1-4 EEL =         2.4406  VDWAALS    =        87.4730
 EELEC  =       249.6300  EHBOND  =         0.0000  RESTRAINT  =         1.2757
 EAMBER (non-restraint)  =       172.2716
 EKCMT  =        70.5884  VIRIAL  =       229.0450  VOLUME     =      1274.8078
                                                    Density    =         0.0405
 Ewald error estimate:   0.1593E-03
 ------------------------------------------------------------------------------
