-------------------------------------------------------
          Amber 16 SANDER                              2016
          -------------------------------------------------------

  [-O]verwriting output

File Assignments:

 Here is the input file:

Equilibrate water in NPT
 &cntrl

  nmropt = 0,
  ntx    = 1,       irest  = 0,       ntrx   = 1,      ntxo   = 1,
  ntpr   = 1000,    ntwx   = 1000,    ntwv   = 0,      ntwe   = 1000,
  iwrap  = 0,       ioutfm = 1,

  ntf    = 2,       ntb    = 2,
  cut = 9.0,

  ibelly = 0,       ntr    = 1,
  restraintmask = ':1',
  restraint_wt = 100.0,

  imin   = 0,
  nstlim = 10000,
  nscm   = 1000,
  t      = 0.0,     dt     = 0.002,

  temp0     = 298.0,   tempi  = 0.0,
  ig        = -1,
  ntt       = 3,
  gamma_ln  = 3.0,

  ntp    = 1,       pres0  = 1.0,     comp   = 44.6,
  taup   = 1.0,

  ntc    = 2,       tol    = 0.000001, watnam = 'WAT ',

 &end

--------------------------------------------------------------------------------
   1.  RESOURCE   USE:
--------------------------------------------------------------------------------

 getting new box info from bottom of inpcrd

 NATOM  =    3148 NTYPES =       9 NBONH =    3138 MBONA  =       9
 NTHETH =      25 MTHETA =      11 NPHIH =      43 MPHIA  =      24
 NHPARM =       0 NPARM  =       0 NNB   =    4267 NRES   =    1045
 NBONA  =       9 NTHETA =      11 NPHIA =      24 NUMBND =      10
 NUMANG =      16 NPTRA  =      19 NATYP =       9 NPHB   =       1
 IFBOX  =       2 NMXRS  =      10 IFCAP =       0 NEXTRA =       0
 NCOPY  =       0

     BOX TYPE: TRUNCATED OCTAHEDRON
Note: ig = -1. Setting random seed to   446336 based on wallclock time in microseconds
      and disabling the synchronization of random numbers between tasks
      to improve performance.

--------------------------------------------------------------------------------
   2.  CONTROL  DATA  FOR  THE  RUN
--------------------------------------------------------------------------------

default_name

General flags:
     imin    =       0, nmropt  =       0

Nature and format of input:
     ntx     =       1, irest   =       0, ntrx    =       1

Nature and format of output:
     ntxo    =       1, ntpr    =    1000, ntrx    =       1, ntwr    =   10000
     iwrap   =       0, ntwx    =    1000, ntwv    =       0, ntwe    =    1000
     ioutfm  =       1, ntwprt  =       0, idecomp =       0, rbornstat=      0

Potential function:
     ntf     =       2, ntb     =       2, igb     =       0, nsnb    =      25
     ipol    =       0, gbsa    =       0, iesp    =       0
     dielc   =   1.00000, cut     =   9.00000, intdiel =   1.00000

Frozen or restrained atoms:
     ibelly  =       0, ntr     =       1
     restraint_wt = 100.00000

Molecular dynamics:
     nstlim  =     10000, nscm    =         0, nrespa  =         1
     t       =   0.00000, dt      =   0.00200, vlimit  =  20.00000

Langevin dynamics temperature regulation:
     ig      =  446336
     temp0   = 298.00000, tempi   =   0.00000, gamma_ln=   3.00000

Pressure regulation:
     ntp     =       1
     pres0   =   1.00000, comp    =  44.60000, taup    =   1.00000

SHAKE:
     ntc     =       2, jfastw  =       0
     tol     =   0.00000

Ewald parameters:
     verbose =       0, ew_type =       0, nbflag  =       1, use_pme =       1
     vdwmeth =       1, eedmeth =       1, netfrc  =       1
     Box X =   36.583   Box Y =   36.583   Box Z =   36.583
     Alpha =  109.471   Beta  =  109.471   Gamma =  109.471
     NFFT1 =   36       NFFT2 =   36       NFFT3 =   36
     Cutoff=    9.000   Tol   =0.100E-04
     Ewald Coefficient =  0.30768
     Interpolation order =    4

    LOADING THE CONSTRAINED ATOMS AS GROUPS

   5.  REFERENCE ATOM COORDINATES

  defa
     Mask :1; matches     6 atoms

--------------------------------------------------------------------------------
   3.  ATOMIC COORDINATES AND VELOCITIES
--------------------------------------------------------------------------------

defa
 begin time read from input coords =     0.000 ps

 Number of triangulated 3-point waters found:     1042

     Sum of charges from parm topology file =  -0.00000000
     Forcing neutrality...

--------------------------------------------------------------------------------
   4.  RESULTS
 NSTEP =        0   TIME(PS) =       0.000  TEMP(K) =     0.00  PRESS = -4941.7
 Etot   =    -13781.1315  EKtot   =         0.0000  EPtot      =    -13781.1315
 BOND   =         0.8015  ANGLE   =         1.0800  DIHED      =         8.7735
 1-4 NB =         3.1717  1-4 EEL =        46.9307  VDWAALS    =      2494.3357
 EELEC  =    -16336.2920  EHBOND  =         0.0000  RESTRAINT  =         0.0673
 EAMBER (non-restraint)  =    -13781.1988
 EKCMT  =         0.0000  VIRIAL  =      4021.4205  VOLUME     =     37689.7991
                                                    Density    =         0.8335
 Ewald error estimate:   0.3018E-03
 ------------------------------------------------------------------------------

      A V E R A G E S   O V E R   10000 S T E P S

 NSTEP =    10000   TIME(PS) =      20.000  TEMP(K) =   291.99  PRESS =  -195.4
 Etot   =     -8181.3415  EKtot   =      1829.4776  EPtot      =    -10010.8191
 BOND   =         3.0272  ANGLE   =         7.9604  DIHED      =        11.1020
 1-4 NB =         3.2427  1-4 EEL =        46.2127  VDWAALS    =      1498.7598
 EELEC  =    -11584.1427  EHBOND  =         0.0000  RESTRAINT  =         3.0188
 EAMBER (non-restraint)  =    -10013.8379
 EKCMT  =       913.2629  VIRIAL  =      1059.1563  VOLUME     =     32589.3448
                                                    Density    =         0.9653
 Ewald error estimate:   0.1948E-03
 ------------------------------------------------------------------------------

      R M S  F L U C T U A T I O N S

 NSTEP =    10000   TIME(PS) =      20.000  TEMP(K) =    26.11  PRESS =   434.6
 Etot   =       351.6191  EKtot   =       163.5884  EPtot      =       196.3775
 BOND   =         1.3915  ANGLE   =         2.1897  DIHED      =         1.4746
 1-4 NB =         0.7719  1-4 EEL =         2.1202  VDWAALS    =        97.0491
 EELEC  =       282.4032  EHBOND  =         0.0000  RESTRAINT  =         1.2447
 EAMBER (non-restraint)  =       195.1328
 EKCMT  =        79.1294  VIRIAL  =       290.9501  VOLUME     =      1302.6601
                                                    Density    =         0.0359
 Ewald error estimate:   0.1456E-03
 ------------------------------------------------------------------------------
