-------------------------------------------------------
          Amber 16 SANDER                              2016
          -------------------------------------------------------

  [-O]verwriting output

File Assignments:

 Here is the input file:

Equilibrate water in NPT
 &cntrl

  nmropt = 0,
  ntx    = 1,       irest  = 0,       ntrx   = 1,      ntxo   = 1,
  ntpr   = 1000,    ntwx   = 1000,    ntwv   = 0,      ntwe   = 1000,
  iwrap  = 0,       ioutfm = 1,

  ntf    = 2,       ntb    = 2,
  cut = 9.0,

  ibelly = 0,       ntr    = 1,
  restraintmask = ':1',
  restraint_wt = 100.0,

  imin   = 0,
  nstlim = 10000,
  nscm   = 1000,
  t      = 0.0,     dt     = 0.002,

  temp0     = 298.0,   tempi  = 0.0,
  ig        = -1,
  ntt       = 3,
  gamma_ln  = 3.0,

  ntp    = 1,       pres0  = 1.0,     comp   = 44.6,
  taup   = 1.0,

  ntc    = 2,       tol    = 0.000001, watnam = 'WAT ',

 &end

--------------------------------------------------------------------------------
   1.  RESOURCE   USE:
--------------------------------------------------------------------------------

 getting new box info from bottom of inpcrd

 NATOM  =    2983 NTYPES =       9 NBONH =    2973 MBONA  =       9
 NTHETH =      25 MTHETA =      11 NPHIH =      43 MPHIA  =      24
 NHPARM =       0 NPARM  =       0 NNB   =    4047 NRES   =     990
 NBONA  =       9 NTHETA =      11 NPHIA =      24 NUMBND =      10
 NUMANG =      16 NPTRA  =      19 NATYP =       9 NPHB   =       1
 IFBOX  =       2 NMXRS  =      10 IFCAP =       0 NEXTRA =       0
 NCOPY  =       0

     BOX TYPE: TRUNCATED OCTAHEDRON
Note: ig = -1. Setting random seed to   609869 based on wallclock time in microseconds
      and disabling the synchronization of random numbers between tasks
      to improve performance.

--------------------------------------------------------------------------------
   2.  CONTROL  DATA  FOR  THE  RUN
--------------------------------------------------------------------------------

default_name

General flags:
     imin    =       0, nmropt  =       0

Nature and format of input:
     ntx     =       1, irest   =       0, ntrx    =       1

Nature and format of output:
     ntxo    =       1, ntpr    =    1000, ntrx    =       1, ntwr    =   10000
     iwrap   =       0, ntwx    =    1000, ntwv    =       0, ntwe    =    1000
     ioutfm  =       1, ntwprt  =       0, idecomp =       0, rbornstat=      0

Potential function:
     ntf     =       2, ntb     =       2, igb     =       0, nsnb    =      25
     ipol    =       0, gbsa    =       0, iesp    =       0
     dielc   =   1.00000, cut     =   9.00000, intdiel =   1.00000

Frozen or restrained atoms:
     ibelly  =       0, ntr     =       1
     restraint_wt = 100.00000

Molecular dynamics:
     nstlim  =     10000, nscm    =         0, nrespa  =         1
     t       =   0.00000, dt      =   0.00200, vlimit  =  20.00000

Langevin dynamics temperature regulation:
     ig      =  609869
     temp0   = 298.00000, tempi   =   0.00000, gamma_ln=   3.00000

Pressure regulation:
     ntp     =       1
     pres0   =   1.00000, comp    =  44.60000, taup    =   1.00000

SHAKE:
     ntc     =       2, jfastw  =       0
     tol     =   0.00000

Ewald parameters:
     verbose =       0, ew_type =       0, nbflag  =       1, use_pme =       1
     vdwmeth =       1, eedmeth =       1, netfrc  =       1
     Box X =   36.034   Box Y =   36.034   Box Z =   36.034
     Alpha =  109.471   Beta  =  109.471   Gamma =  109.471
     NFFT1 =   36       NFFT2 =   36       NFFT3 =   36
     Cutoff=    9.000   Tol   =0.100E-04
     Ewald Coefficient =  0.30768
     Interpolation order =    4

    LOADING THE CONSTRAINED ATOMS AS GROUPS

   5.  REFERENCE ATOM COORDINATES

  defa
     Mask :1; matches     6 atoms

--------------------------------------------------------------------------------
   3.  ATOMIC COORDINATES AND VELOCITIES
--------------------------------------------------------------------------------

defa
 begin time read from input coords =     0.000 ps

 Number of triangulated 3-point waters found:      987

     Sum of charges from parm topology file =  -0.00000000
     Forcing neutrality...

--------------------------------------------------------------------------------
   4.  RESULTS
 NSTEP =        0   TIME(PS) =       0.000  TEMP(K) =     0.00  PRESS = -5450.7
 Etot   =    -13004.3392  EKtot   =         0.0000  EPtot      =    -13004.3392
 BOND   =         0.5540  ANGLE   =         3.3075  DIHED      =        12.5842
 1-4 NB =         2.1811  1-4 EEL =        43.5217  VDWAALS    =      2271.0296
 EELEC  =    -15337.8832  EHBOND  =         0.0000  RESTRAINT  =         0.3660
 EAMBER (non-restraint)  =    -13004.7052
 EKCMT  =         0.0000  VIRIAL  =      4238.8357  VOLUME     =     36017.6080
                                                    Density    =         0.8265
 Ewald error estimate:   0.3382E-03
 ------------------------------------------------------------------------------

      A V E R A G E S   O V E R   10000 S T E P S

 NSTEP =    10000   TIME(PS) =      20.000  TEMP(K) =   292.06  PRESS =  -197.0
 Etot   =     -7749.5180  EKtot   =      1734.1532  EPtot      =     -9483.6712
 BOND   =         3.2524  ANGLE   =        10.2557  DIHED      =        10.8090
 1-4 NB =         3.2003  1-4 EEL =        44.0526  VDWAALS    =      1411.7556
 EELEC  =    -10969.8433  EHBOND  =         0.0000  RESTRAINT  =         2.8465
 EAMBER (non-restraint)  =     -9486.5177
 EKCMT  =       864.7946  VIRIAL  =      1005.2534  VOLUME     =     30760.1725
                                                    Density    =         0.9693
 Ewald error estimate:   0.1969E-03
 ------------------------------------------------------------------------------

      R M S  F L U C T U A T I O N S

 NSTEP =    10000   TIME(PS) =      20.000  TEMP(K) =    26.05  PRESS =   474.3
 Etot   =       326.6510  EKtot   =       154.6555  EPtot      =       181.2092
 BOND   =         1.5523  ANGLE   =         2.7191  DIHED      =         1.4271
 1-4 NB =         0.7442  1-4 EEL =         1.8980  VDWAALS    =        87.3084
 EELEC  =       256.8901  EHBOND  =         0.0000  RESTRAINT  =         1.1812
 EAMBER (non-restraint)  =       180.0280
 EKCMT  =        75.8625  VIRIAL  =       297.9922  VOLUME     =      1307.7819
                                                    Density    =         0.0380
 Ewald error estimate:   0.1505E-03
 ------------------------------------------------------------------------------
