-------------------------------------------------------
          Amber 16 SANDER                              2016
          -------------------------------------------------------

  [-O]verwriting output

File Assignments:

 Here is the input file:

Equilibrate water in NPT
 &cntrl

  nmropt = 0,
  ntx    = 1,       irest  = 0,       ntrx   = 1,      ntxo   = 1,
  ntpr   = 1000,    ntwx   = 1000,    ntwv   = 0,      ntwe   = 1000,
  iwrap  = 0,       ioutfm = 1,

  ntf    = 2,       ntb    = 2,
  cut = 9.0,

  ibelly = 0,       ntr    = 1,
  restraintmask = ':1',
  restraint_wt = 100.0,

  imin   = 0,
  nstlim = 10000,
  nscm   = 1000,
  t      = 0.0,     dt     = 0.002,

  temp0     = 298.0,   tempi  = 0.0,
  ig        = -1,
  ntt       = 3,
  gamma_ln  = 3.0,

  ntp    = 1,       pres0  = 1.0,     comp   = 44.6,
  taup   = 1.0,

  ntc    = 2,       tol    = 0.000001, watnam = 'WAT ',

 &end

--------------------------------------------------------------------------------
   1.  RESOURCE   USE:
--------------------------------------------------------------------------------

 getting new box info from bottom of inpcrd

 NATOM  =    2998 NTYPES =       9 NBONH =    2988 MBONA  =       9
 NTHETH =      25 MTHETA =      11 NPHIH =      43 MPHIA  =      24
 NHPARM =       0 NPARM  =       0 NNB   =    4067 NRES   =     995
 NBONA  =       9 NTHETA =      11 NPHIA =      24 NUMBND =      10
 NUMANG =      16 NPTRA  =      19 NATYP =       9 NPHB   =       1
 IFBOX  =       2 NMXRS  =      10 IFCAP =       0 NEXTRA =       0
 NCOPY  =       0

     BOX TYPE: TRUNCATED OCTAHEDRON
Note: ig = -1. Setting random seed to   690456 based on wallclock time in microseconds
      and disabling the synchronization of random numbers between tasks
      to improve performance.

--------------------------------------------------------------------------------
   2.  CONTROL  DATA  FOR  THE  RUN
--------------------------------------------------------------------------------

default_name

General flags:
     imin    =       0, nmropt  =       0

Nature and format of input:
     ntx     =       1, irest   =       0, ntrx    =       1

Nature and format of output:
     ntxo    =       1, ntpr    =    1000, ntrx    =       1, ntwr    =   10000
     iwrap   =       0, ntwx    =    1000, ntwv    =       0, ntwe    =    1000
     ioutfm  =       1, ntwprt  =       0, idecomp =       0, rbornstat=      0

Potential function:
     ntf     =       2, ntb     =       2, igb     =       0, nsnb    =      25
     ipol    =       0, gbsa    =       0, iesp    =       0
     dielc   =   1.00000, cut     =   9.00000, intdiel =   1.00000

Frozen or restrained atoms:
     ibelly  =       0, ntr     =       1
     restraint_wt = 100.00000

Molecular dynamics:
     nstlim  =     10000, nscm    =         0, nrespa  =         1
     t       =   0.00000, dt      =   0.00200, vlimit  =  20.00000

Langevin dynamics temperature regulation:
     ig      =  690456
     temp0   = 298.00000, tempi   =   0.00000, gamma_ln=   3.00000

Pressure regulation:
     ntp     =       1
     pres0   =   1.00000, comp    =  44.60000, taup    =   1.00000

SHAKE:
     ntc     =       2, jfastw  =       0
     tol     =   0.00000

Ewald parameters:
     verbose =       0, ew_type =       0, nbflag  =       1, use_pme =       1
     vdwmeth =       1, eedmeth =       1, netfrc  =       1
     Box X =   36.122   Box Y =   36.122   Box Z =   36.122
     Alpha =  109.471   Beta  =  109.471   Gamma =  109.471
     NFFT1 =   36       NFFT2 =   36       NFFT3 =   36
     Cutoff=    9.000   Tol   =0.100E-04
     Ewald Coefficient =  0.30768
     Interpolation order =    4

    LOADING THE CONSTRAINED ATOMS AS GROUPS

   5.  REFERENCE ATOM COORDINATES

  defa
     Mask :1; matches     6 atoms

--------------------------------------------------------------------------------
   3.  ATOMIC COORDINATES AND VELOCITIES
--------------------------------------------------------------------------------

defa
 begin time read from input coords =     0.000 ps

 Number of triangulated 3-point waters found:      992

     Sum of charges from parm topology file =  -0.00000000
     Forcing neutrality...

--------------------------------------------------------------------------------
   4.  RESULTS
 NSTEP =        0   TIME(PS) =       0.000  TEMP(K) =     0.00  PRESS = -5452.0
 Etot   =    -13076.4965  EKtot   =         0.0000  EPtot      =    -13076.4965
 BOND   =         0.6615  ANGLE   =         1.4565  DIHED      =         8.8639
 1-4 NB =         3.3624  1-4 EEL =        47.3321  VDWAALS    =      2282.9780
 EELEC  =    -15421.2169  EHBOND  =         0.0000  RESTRAINT  =         0.0660
 EAMBER (non-restraint)  =    -13076.5625
 EKCMT  =         0.0000  VIRIAL  =      4270.9834  VOLUME     =     36282.3280
                                                    Density    =         0.8246
 Ewald error estimate:   0.1841E-03
 ------------------------------------------------------------------------------

      A V E R A G E S   O V E R   10000 S T E P S

 NSTEP =    10000   TIME(PS) =      20.000  TEMP(K) =   294.05  PRESS =  -196.8
 Etot   =     -7758.9793  EKtot   =      1754.7554  EPtot      =     -9513.7347
 BOND   =         3.0950  ANGLE   =         7.9186  DIHED      =        11.2280
 1-4 NB =         3.2644  1-4 EEL =        46.1960  VDWAALS    =      1426.1164
 EELEC  =    -11014.9187  EHBOND  =         0.0000  RESTRAINT  =         3.3655
 EAMBER (non-restraint)  =     -9517.1002
 EKCMT  =       874.2978  VIRIAL  =      1015.6557  VOLUME     =     31109.9053
                                                    Density    =         0.9630
 Ewald error estimate:   0.1919E-03
 ------------------------------------------------------------------------------

      R M S  F L U C T U A T I O N S

 NSTEP =    10000   TIME(PS) =      20.000  TEMP(K) =    26.86  PRESS =   463.6
 Etot   =       340.2039  EKtot   =       160.3151  EPtot      =       186.6774
 BOND   =         1.4905  ANGLE   =         2.1497  DIHED      =         1.2774
 1-4 NB =         0.7563  1-4 EEL =         2.2490  VDWAALS    =        85.5880
 EELEC  =       262.6601  EHBOND  =         0.0000  RESTRAINT  =         1.3799
 EAMBER (non-restraint)  =       185.2975
 EKCMT  =        77.8907  VIRIAL  =       292.8274  VOLUME     =      1209.5211
                                                    Density    =         0.0346
 Ewald error estimate:   0.1438E-03
 ------------------------------------------------------------------------------
