-------------------------------------------------------
          Amber 16 SANDER                              2016
          -------------------------------------------------------

  [-O]verwriting output

File Assignments:

 Here is the input file:

Equilibrate water in NPT
 &cntrl

  nmropt = 0,
  ntx    = 1,       irest  = 0,       ntrx   = 1,      ntxo   = 1,
  ntpr   = 1000,    ntwx   = 1000,    ntwv   = 0,      ntwe   = 1000,
  iwrap  = 0,       ioutfm = 1,

  ntf    = 2,       ntb    = 2,
  cut = 9.0,

  ibelly = 0,       ntr    = 1,
  restraintmask = ':1',
  restraint_wt = 100.0,

  imin   = 0,
  nstlim = 10000,
  nscm   = 1000,
  t      = 0.0,     dt     = 0.002,

  temp0     = 298.0,   tempi  = 0.0,
  ig        = -1,
  ntt       = 3,
  gamma_ln  = 3.0,

  ntp    = 1,       pres0  = 1.0,     comp   = 44.6,
  taup   = 1.0,

  ntc    = 2,       tol    = 0.000001, watnam = 'WAT ',

 &end

--------------------------------------------------------------------------------
   1.  RESOURCE   USE:
--------------------------------------------------------------------------------

 getting new box info from bottom of inpcrd

 NATOM  =    3010 NTYPES =       9 NBONH =    3000 MBONA  =       9
 NTHETH =      25 MTHETA =      11 NPHIH =      43 MPHIA  =      24
 NHPARM =       0 NPARM  =       0 NNB   =    4083 NRES   =     999
 NBONA  =       9 NTHETA =      11 NPHIA =      24 NUMBND =      10
 NUMANG =      16 NPTRA  =      19 NATYP =       9 NPHB   =       1
 IFBOX  =       2 NMXRS  =      10 IFCAP =       0 NEXTRA =       0
 NCOPY  =       0

     BOX TYPE: TRUNCATED OCTAHEDRON
Note: ig = -1. Setting random seed to   308592 based on wallclock time in microseconds
      and disabling the synchronization of random numbers between tasks
      to improve performance.

--------------------------------------------------------------------------------
   2.  CONTROL  DATA  FOR  THE  RUN
--------------------------------------------------------------------------------

default_name

General flags:
     imin    =       0, nmropt  =       0

Nature and format of input:
     ntx     =       1, irest   =       0, ntrx    =       1

Nature and format of output:
     ntxo    =       1, ntpr    =    1000, ntrx    =       1, ntwr    =   10000
     iwrap   =       0, ntwx    =    1000, ntwv    =       0, ntwe    =    1000
     ioutfm  =       1, ntwprt  =       0, idecomp =       0, rbornstat=      0

Potential function:
     ntf     =       2, ntb     =       2, igb     =       0, nsnb    =      25
     ipol    =       0, gbsa    =       0, iesp    =       0
     dielc   =   1.00000, cut     =   9.00000, intdiel =   1.00000

Frozen or restrained atoms:
     ibelly  =       0, ntr     =       1
     restraint_wt = 100.00000

Molecular dynamics:
     nstlim  =     10000, nscm    =         0, nrespa  =         1
     t       =   0.00000, dt      =   0.00200, vlimit  =  20.00000

Langevin dynamics temperature regulation:
     ig      =  308592
     temp0   = 298.00000, tempi   =   0.00000, gamma_ln=   3.00000

Pressure regulation:
     ntp     =       1
     pres0   =   1.00000, comp    =  44.60000, taup    =   1.00000

SHAKE:
     ntc     =       2, jfastw  =       0
     tol     =   0.00000

Ewald parameters:
     verbose =       0, ew_type =       0, nbflag  =       1, use_pme =       1
     vdwmeth =       1, eedmeth =       1, netfrc  =       1
     Box X =   36.164   Box Y =   36.164   Box Z =   36.164
     Alpha =  109.471   Beta  =  109.471   Gamma =  109.471
     NFFT1 =   36       NFFT2 =   36       NFFT3 =   36
     Cutoff=    9.000   Tol   =0.100E-04
     Ewald Coefficient =  0.30768
     Interpolation order =    4

    LOADING THE CONSTRAINED ATOMS AS GROUPS

   5.  REFERENCE ATOM COORDINATES

  defa
     Mask :1; matches     6 atoms

--------------------------------------------------------------------------------
   3.  ATOMIC COORDINATES AND VELOCITIES
--------------------------------------------------------------------------------

defa
 begin time read from input coords =     0.000 ps

 Number of triangulated 3-point waters found:      996

     Sum of charges from parm topology file =  -0.00000000
     Forcing neutrality...

--------------------------------------------------------------------------------
   4.  RESULTS
 NSTEP =        0   TIME(PS) =       0.000  TEMP(K) =     0.00  PRESS = -5204.4
 Etot   =    -13119.5579  EKtot   =         0.0000  EPtot      =    -13119.5579
 BOND   =         0.5589  ANGLE   =         1.4050  DIHED      =        10.9532
 1-4 NB =         3.0189  1-4 EEL =        43.8866  VDWAALS    =      2334.6217
 EELEC  =    -15514.1465  EHBOND  =         0.0000  RESTRAINT  =         0.1443
 EAMBER (non-restraint)  =    -13119.7022
 EKCMT  =         0.0000  VIRIAL  =      4091.2800  VOLUME     =     36408.9854
                                                    Density    =         0.8250
 Ewald error estimate:   0.4604E-04
 ------------------------------------------------------------------------------

      A V E R A G E S   O V E R   10000 S T E P S

 NSTEP =    10000   TIME(PS) =      20.000  TEMP(K) =   292.36  PRESS =  -195.9
 Etot   =     -7815.3514  EKtot   =      1751.6399  EPtot      =     -9566.9913
 BOND   =         3.2797  ANGLE   =         8.7157  DIHED      =        11.3958
 1-4 NB =         3.5383  1-4 EEL =        44.9503  VDWAALS    =      1430.8790
 EELEC  =    -11072.6580  EHBOND  =         0.0000  RESTRAINT  =         2.9079
 EAMBER (non-restraint)  =     -9569.8992
 EKCMT  =       871.3632  VIRIAL  =      1012.6242  VOLUME     =     31169.7762
                                                    Density    =         0.9654
 Ewald error estimate:   0.1849E-03
 ------------------------------------------------------------------------------

      R M S  F L U C T U A T I O N S

 NSTEP =    10000   TIME(PS) =      20.000  TEMP(K) =    25.95  PRESS =   459.8
 Etot   =       336.2740  EKtot   =       155.4565  EPtot      =       191.3513
 BOND   =         1.5238  ANGLE   =         2.6110  DIHED      =         1.2297
 1-4 NB =         0.7577  1-4 EEL =         1.8592  VDWAALS    =        92.0438
 EELEC  =       271.1053  EHBOND  =         0.0000  RESTRAINT  =         1.2451
 EAMBER (non-restraint)  =       190.1062
 EKCMT  =        74.5303  VIRIAL  =       295.6860  VOLUME     =      1377.5181
                                                    Density    =         0.0394
 Ewald error estimate:   0.1441E-03
 ------------------------------------------------------------------------------
