-------------------------------------------------------
          Amber 16 SANDER                              2016
          -------------------------------------------------------

  [-O]verwriting output

File Assignments:

 Here is the input file:

Equilibrate water in NPT
 &cntrl

  nmropt = 0,
  ntx    = 1,       irest  = 0,       ntrx   = 1,      ntxo   = 1,
  ntpr   = 1000,    ntwx   = 1000,    ntwv   = 0,      ntwe   = 1000,
  iwrap  = 0,       ioutfm = 1,

  ntf    = 2,       ntb    = 2,
  cut = 9.0,

  ibelly = 0,       ntr    = 1,
  restraintmask = ':1',
  restraint_wt = 100.0,

  imin   = 0,
  nstlim = 10000,
  nscm   = 1000,
  t      = 0.0,     dt     = 0.002,

  temp0     = 298.0,   tempi  = 0.0,
  ig        = -1,
  ntt       = 3,
  gamma_ln  = 3.0,

  ntp    = 1,       pres0  = 1.0,     comp   = 44.6,
  taup   = 1.0,

  ntc    = 2,       tol    = 0.000001, watnam = 'WAT ',

 &end

--------------------------------------------------------------------------------
   1.  RESOURCE   USE:
--------------------------------------------------------------------------------

 getting new box info from bottom of inpcrd

 NATOM  =    2968 NTYPES =       9 NBONH =    2958 MBONA  =       9
 NTHETH =      25 MTHETA =      11 NPHIH =      43 MPHIA  =      24
 NHPARM =       0 NPARM  =       0 NNB   =    4027 NRES   =     985
 NBONA  =       9 NTHETA =      11 NPHIA =      24 NUMBND =      10
 NUMANG =      16 NPTRA  =      19 NATYP =       9 NPHB   =       1
 IFBOX  =       2 NMXRS  =      10 IFCAP =       0 NEXTRA =       0
 NCOPY  =       0

     BOX TYPE: TRUNCATED OCTAHEDRON
Note: ig = -1. Setting random seed to   743647 based on wallclock time in microseconds
      and disabling the synchronization of random numbers between tasks
      to improve performance.

--------------------------------------------------------------------------------
   2.  CONTROL  DATA  FOR  THE  RUN
--------------------------------------------------------------------------------

default_name

General flags:
     imin    =       0, nmropt  =       0

Nature and format of input:
     ntx     =       1, irest   =       0, ntrx    =       1

Nature and format of output:
     ntxo    =       1, ntpr    =    1000, ntrx    =       1, ntwr    =   10000
     iwrap   =       0, ntwx    =    1000, ntwv    =       0, ntwe    =    1000
     ioutfm  =       1, ntwprt  =       0, idecomp =       0, rbornstat=      0

Potential function:
     ntf     =       2, ntb     =       2, igb     =       0, nsnb    =      25
     ipol    =       0, gbsa    =       0, iesp    =       0
     dielc   =   1.00000, cut     =   9.00000, intdiel =   1.00000

Frozen or restrained atoms:
     ibelly  =       0, ntr     =       1
     restraint_wt = 100.00000

Molecular dynamics:
     nstlim  =     10000, nscm    =         0, nrespa  =         1
     t       =   0.00000, dt      =   0.00200, vlimit  =  20.00000

Langevin dynamics temperature regulation:
     ig      =  743647
     temp0   = 298.00000, tempi   =   0.00000, gamma_ln=   3.00000

Pressure regulation:
     ntp     =       1
     pres0   =   1.00000, comp    =  44.60000, taup    =   1.00000

SHAKE:
     ntc     =       2, jfastw  =       0
     tol     =   0.00000

Ewald parameters:
     verbose =       0, ew_type =       0, nbflag  =       1, use_pme =       1
     vdwmeth =       1, eedmeth =       1, netfrc  =       1
     Box X =   35.997   Box Y =   35.997   Box Z =   35.997
     Alpha =  109.471   Beta  =  109.471   Gamma =  109.471
     NFFT1 =   36       NFFT2 =   36       NFFT3 =   36
     Cutoff=    9.000   Tol   =0.100E-04
     Ewald Coefficient =  0.30768
     Interpolation order =    4

    LOADING THE CONSTRAINED ATOMS AS GROUPS

   5.  REFERENCE ATOM COORDINATES

  defa
     Mask :1; matches     6 atoms

--------------------------------------------------------------------------------
   3.  ATOMIC COORDINATES AND VELOCITIES
--------------------------------------------------------------------------------

defa
 begin time read from input coords =     0.000 ps

 Number of triangulated 3-point waters found:      982

     Sum of charges from parm topology file =  -0.00000000
     Forcing neutrality...

--------------------------------------------------------------------------------
   4.  RESULTS
 NSTEP =        0   TIME(PS) =       0.000  TEMP(K) =     0.00  PRESS = -5618.0
 Etot   =    -12931.6094  EKtot   =         0.0000  EPtot      =    -12931.6094
 BOND   =         0.3262  ANGLE   =         0.7322  DIHED      =        10.7196
 1-4 NB =         2.4362  1-4 EEL =        46.5076  VDWAALS    =      2230.0923
 EELEC  =    -15222.5611  EHBOND  =         0.0000  RESTRAINT  =         0.1377
 EAMBER (non-restraint)  =    -12931.7470
 EKCMT  =         0.0000  VIRIAL  =      4355.4971  VOLUME     =     35906.6431
                                                    Density    =         0.8249
 Ewald error estimate:   0.1385E-03
 ------------------------------------------------------------------------------

      A V E R A G E S   O V E R   10000 S T E P S

 NSTEP =    10000   TIME(PS) =      20.000  TEMP(K) =   293.18  PRESS =  -205.6
 Etot   =     -7684.2683  EKtot   =      1732.0618  EPtot      =     -9416.3301
 BOND   =         3.2212  ANGLE   =         8.5733  DIHED      =        11.0390
 1-4 NB =         3.4980  1-4 EEL =        44.2372  VDWAALS    =      1402.7319
 EELEC  =    -10892.7084  EHBOND  =         0.0000  RESTRAINT  =         3.0778
 EAMBER (non-restraint)  =     -9419.4079
 EKCMT  =       863.4892  VIRIAL  =      1009.1074  VOLUME     =     30690.6299
                                                    Density    =         0.9665
 Ewald error estimate:   0.1924E-03
 ------------------------------------------------------------------------------

      R M S  F L U C T U A T I O N S

 NSTEP =    10000   TIME(PS) =      20.000  TEMP(K) =    26.76  PRESS =   469.3
 Etot   =       335.8678  EKtot   =       158.0811  EPtot      =       184.5637
 BOND   =         1.5371  ANGLE   =         2.3668  DIHED      =         1.2723
 1-4 NB =         0.7999  1-4 EEL =         2.0084  VDWAALS    =        85.4268
 EELEC  =       260.0458  EHBOND  =         0.0000  RESTRAINT  =         1.2661
 EAMBER (non-restraint)  =       183.2976
 EKCMT  =        77.2724  VIRIAL  =       292.2320  VOLUME     =      1236.1488
                                                    Density    =         0.0360
 Ewald error estimate:   0.1452E-03
 ------------------------------------------------------------------------------
