-------------------------------------------------------
          Amber 16 SANDER                              2016
          -------------------------------------------------------

  [-O]verwriting output

File Assignments:

 Here is the input file:

Equilibrate water in NPT
 &cntrl

  nmropt = 0,
  ntx    = 1,       irest  = 0,       ntrx   = 1,      ntxo   = 1,
  ntpr   = 1000,    ntwx   = 1000,    ntwv   = 0,      ntwe   = 1000,
  iwrap  = 0,       ioutfm = 1,

  ntf    = 2,       ntb    = 2,
  cut = 9.0,

  ibelly = 0,       ntr    = 1,
  restraintmask = ':1',
  restraint_wt = 100.0,

  imin   = 0,
  nstlim = 10000,
  nscm   = 1000,
  t      = 0.0,     dt     = 0.002,

  temp0     = 298.0,   tempi  = 0.0,
  ig        = -1,
  ntt       = 3,
  gamma_ln  = 3.0,

  ntp    = 1,       pres0  = 1.0,     comp   = 44.6,
  taup   = 1.0,

  ntc    = 2,       tol    = 0.000001, watnam = 'WAT ',

 &end

--------------------------------------------------------------------------------
   1.  RESOURCE   USE:
--------------------------------------------------------------------------------

 getting new box info from bottom of inpcrd

 NATOM  =    3019 NTYPES =       9 NBONH =    3009 MBONA  =       9
 NTHETH =      25 MTHETA =      11 NPHIH =      43 MPHIA  =      24
 NHPARM =       0 NPARM  =       0 NNB   =    4095 NRES   =    1002
 NBONA  =       9 NTHETA =      11 NPHIA =      24 NUMBND =      10
 NUMANG =      16 NPTRA  =      19 NATYP =       9 NPHB   =       1
 IFBOX  =       2 NMXRS  =      10 IFCAP =       0 NEXTRA =       0
 NCOPY  =       0

     BOX TYPE: TRUNCATED OCTAHEDRON
Note: ig = -1. Setting random seed to   958722 based on wallclock time in microseconds
      and disabling the synchronization of random numbers between tasks
      to improve performance.

--------------------------------------------------------------------------------
   2.  CONTROL  DATA  FOR  THE  RUN
--------------------------------------------------------------------------------

default_name

General flags:
     imin    =       0, nmropt  =       0

Nature and format of input:
     ntx     =       1, irest   =       0, ntrx    =       1

Nature and format of output:
     ntxo    =       1, ntpr    =    1000, ntrx    =       1, ntwr    =   10000
     iwrap   =       0, ntwx    =    1000, ntwv    =       0, ntwe    =    1000
     ioutfm  =       1, ntwprt  =       0, idecomp =       0, rbornstat=      0

Potential function:
     ntf     =       2, ntb     =       2, igb     =       0, nsnb    =      25
     ipol    =       0, gbsa    =       0, iesp    =       0
     dielc   =   1.00000, cut     =   9.00000, intdiel =   1.00000

Frozen or restrained atoms:
     ibelly  =       0, ntr     =       1
     restraint_wt = 100.00000

Molecular dynamics:
     nstlim  =     10000, nscm    =         0, nrespa  =         1
     t       =   0.00000, dt      =   0.00200, vlimit  =  20.00000

Langevin dynamics temperature regulation:
     ig      =  958722
     temp0   = 298.00000, tempi   =   0.00000, gamma_ln=   3.00000

Pressure regulation:
     ntp     =       1
     pres0   =   1.00000, comp    =  44.60000, taup    =   1.00000

SHAKE:
     ntc     =       2, jfastw  =       0
     tol     =   0.00000

Ewald parameters:
     verbose =       0, ew_type =       0, nbflag  =       1, use_pme =       1
     vdwmeth =       1, eedmeth =       1, netfrc  =       1
     Box X =   36.171   Box Y =   36.171   Box Z =   36.171
     Alpha =  109.471   Beta  =  109.471   Gamma =  109.471
     NFFT1 =   36       NFFT2 =   36       NFFT3 =   36
     Cutoff=    9.000   Tol   =0.100E-04
     Ewald Coefficient =  0.30768
     Interpolation order =    4

    LOADING THE CONSTRAINED ATOMS AS GROUPS

   5.  REFERENCE ATOM COORDINATES

  defa
     Mask :1; matches     6 atoms

--------------------------------------------------------------------------------
   3.  ATOMIC COORDINATES AND VELOCITIES
--------------------------------------------------------------------------------

defa
 begin time read from input coords =     0.000 ps

 Number of triangulated 3-point waters found:      999

     Sum of charges from parm topology file =  -0.00000000
     Forcing neutrality...

--------------------------------------------------------------------------------
   4.  RESULTS
 NSTEP =        0   TIME(PS) =       0.000  TEMP(K) =     0.00  PRESS = -5062.1
 Etot   =    -13236.8245  EKtot   =         0.0000  EPtot      =    -13236.8245
 BOND   =         0.7199  ANGLE   =         1.0938  DIHED      =         8.9908
 1-4 NB =         2.5238  1-4 EEL =        45.1399  VDWAALS    =      2384.7969
 EELEC  =    -15680.2503  EHBOND  =         0.0000  RESTRAINT  =         0.1607
 EAMBER (non-restraint)  =    -13236.9852
 EKCMT  =         0.0000  VIRIAL  =      3981.6926  VOLUME     =     36430.0205
                                                    Density    =         0.8270
 Ewald error estimate:   0.6624E-04
 ------------------------------------------------------------------------------

      A V E R A G E S   O V E R   10000 S T E P S

 NSTEP =    10000   TIME(PS) =      20.000  TEMP(K) =   293.30  PRESS =  -195.9
 Etot   =     -7831.1412  EKtot   =      1762.4919  EPtot      =     -9593.6332
 BOND   =         3.0182  ANGLE   =         7.4290  DIHED      =        10.7102
 1-4 NB =         3.1381  1-4 EEL =        46.2077  VDWAALS    =      1434.0924
 EELEC  =    -11101.1643  EHBOND  =         0.0000  RESTRAINT  =         2.9356
 EAMBER (non-restraint)  =     -9596.5687
 EKCMT  =       875.0483  VIRIAL  =      1016.4392  VOLUME     =     31268.8679
                                                    Density    =         0.9650
 Ewald error estimate:   0.1833E-03
 ------------------------------------------------------------------------------

      R M S  F L U C T U A T I O N S

 NSTEP =    10000   TIME(PS) =      20.000  TEMP(K) =    26.46  PRESS =   447.2
 Etot   =       336.5985  EKtot   =       158.9892  EPtot      =       184.3594
 BOND   =         1.4332  ANGLE   =         1.9714  DIHED      =         1.0810
 1-4 NB =         0.7168  1-4 EEL =         1.9606  VDWAALS    =        95.2614
 EELEC  =       270.2705  EHBOND  =         0.0000  RESTRAINT  =         1.1969
 EAMBER (non-restraint)  =       183.1625
 EKCMT  =        78.0422  VIRIAL  =       287.5982  VOLUME     =      1296.7914
                                                    Density    =         0.0369
 Ewald error estimate:   0.1444E-03
 ------------------------------------------------------------------------------
