-------------------------------------------------------
          Amber 16 SANDER                              2016
          -------------------------------------------------------

  [-O]verwriting output

File Assignments:

 Here is the input file:

Equilibrate water in NPT
 &cntrl

  nmropt = 0,
  ntx    = 1,       irest  = 0,       ntrx   = 1,      ntxo   = 1,
  ntpr   = 1000,    ntwx   = 1000,    ntwv   = 0,      ntwe   = 1000,
  iwrap  = 0,       ioutfm = 1,

  ntf    = 2,       ntb    = 2,
  cut = 9.0,

  ibelly = 0,       ntr    = 1,
  restraintmask = ':1',
  restraint_wt = 100.0,

  imin   = 0,
  nstlim = 10000,
  nscm   = 1000,
  t      = 0.0,     dt     = 0.002,

  temp0     = 298.0,   tempi  = 0.0,
  ig        = -1,
  ntt       = 3,
  gamma_ln  = 3.0,

  ntp    = 1,       pres0  = 1.0,     comp   = 44.6,
  taup   = 1.0,

  ntc    = 2,       tol    = 0.000001, watnam = 'WAT ',

 &end

--------------------------------------------------------------------------------
   1.  RESOURCE   USE:
--------------------------------------------------------------------------------

 getting new box info from bottom of inpcrd

 NATOM  =    2749 NTYPES =       9 NBONH =    2739 MBONA  =       9
 NTHETH =      25 MTHETA =      11 NPHIH =      43 MPHIA  =      24
 NHPARM =       0 NPARM  =       0 NNB   =    3735 NRES   =     912
 NBONA  =       9 NTHETA =      11 NPHIA =      24 NUMBND =      10
 NUMANG =      16 NPTRA  =      19 NATYP =       9 NPHB   =       1
 IFBOX  =       2 NMXRS  =      10 IFCAP =       0 NEXTRA =       0
 NCOPY  =       0

     BOX TYPE: TRUNCATED OCTAHEDRON
Note: ig = -1. Setting random seed to   453491 based on wallclock time in microseconds
      and disabling the synchronization of random numbers between tasks
      to improve performance.

--------------------------------------------------------------------------------
   2.  CONTROL  DATA  FOR  THE  RUN
--------------------------------------------------------------------------------

default_name

General flags:
     imin    =       0, nmropt  =       0

Nature and format of input:
     ntx     =       1, irest   =       0, ntrx    =       1

Nature and format of output:
     ntxo    =       1, ntpr    =    1000, ntrx    =       1, ntwr    =   10000
     iwrap   =       0, ntwx    =    1000, ntwv    =       0, ntwe    =    1000
     ioutfm  =       1, ntwprt  =       0, idecomp =       0, rbornstat=      0

Potential function:
     ntf     =       2, ntb     =       2, igb     =       0, nsnb    =      25
     ipol    =       0, gbsa    =       0, iesp    =       0
     dielc   =   1.00000, cut     =   9.00000, intdiel =   1.00000

Frozen or restrained atoms:
     ibelly  =       0, ntr     =       1
     restraint_wt = 100.00000

Molecular dynamics:
     nstlim  =     10000, nscm    =         0, nrespa  =         1
     t       =   0.00000, dt      =   0.00200, vlimit  =  20.00000

Langevin dynamics temperature regulation:
     ig      =  453491
     temp0   = 298.00000, tempi   =   0.00000, gamma_ln=   3.00000

Pressure regulation:
     ntp     =       1
     pres0   =   1.00000, comp    =  44.60000, taup    =   1.00000

SHAKE:
     ntc     =       2, jfastw  =       0
     tol     =   0.00000

Ewald parameters:
     verbose =       0, ew_type =       0, nbflag  =       1, use_pme =       1
     vdwmeth =       1, eedmeth =       1, netfrc  =       1
     Box X =   34.940   Box Y =   34.940   Box Z =   34.940
     Alpha =  109.471   Beta  =  109.471   Gamma =  109.471
     NFFT1 =   36       NFFT2 =   36       NFFT3 =   36
     Cutoff=    9.000   Tol   =0.100E-04
     Ewald Coefficient =  0.30768
     Interpolation order =    4

    LOADING THE CONSTRAINED ATOMS AS GROUPS

   5.  REFERENCE ATOM COORDINATES

  defa
     Mask :1; matches     6 atoms

--------------------------------------------------------------------------------
   3.  ATOMIC COORDINATES AND VELOCITIES
--------------------------------------------------------------------------------

defa
 begin time read from input coords =     0.000 ps

 Number of triangulated 3-point waters found:      909

     Sum of charges from parm topology file =  -0.00000000
     Forcing neutrality...

--------------------------------------------------------------------------------
   4.  RESULTS
 NSTEP =        0   TIME(PS) =       0.000  TEMP(K) =     0.00  PRESS = -4552.2
 Etot   =    -12036.1006  EKtot   =         0.0000  EPtot      =    -12036.1006
 BOND   =         0.5794  ANGLE   =         2.9574  DIHED      =        11.9460
 1-4 NB =         2.0703  1-4 EEL =        43.6211  VDWAALS    =      2225.7335
 EELEC  =    -14323.2903  EHBOND  =         0.0000  RESTRAINT  =         0.2819
 EAMBER (non-restraint)  =    -12036.3826
 EKCMT  =         0.0000  VIRIAL  =      3227.3473  VOLUME     =     32836.0250
                                                    Density    =         0.8355
 Ewald error estimate:   0.1292E-03
 ------------------------------------------------------------------------------

      A V E R A G E S   O V E R   10000 S T E P S

 NSTEP =    10000   TIME(PS) =      20.000  TEMP(K) =   292.33  PRESS =  -187.3
 Etot   =     -7138.6253  EKtot   =      1599.8534  EPtot      =     -8738.4786
 BOND   =         3.4557  ANGLE   =        10.3296  DIHED      =        11.0342
 1-4 NB =         3.1161  1-4 EEL =        44.0955  VDWAALS    =      1311.1740
 EELEC  =    -10124.7895  EHBOND  =         0.0000  RESTRAINT  =         3.1058
 EAMBER (non-restraint)  =     -8741.5844
 EKCMT  =       798.3872  VIRIAL  =       920.6871  VOLUME     =     28481.8412
                                                    Density    =         0.9647
 Ewald error estimate:   0.2040E-03
 ------------------------------------------------------------------------------

      R M S  F L U C T U A T I O N S

 NSTEP =    10000   TIME(PS) =      20.000  TEMP(K) =    26.63  PRESS =   424.9
 Etot   =       305.1277  EKtot   =       145.7429  EPtot      =       166.5361
 BOND   =         1.5609  ANGLE   =         2.5904  DIHED      =         1.4705
 1-4 NB =         0.7671  1-4 EEL =         2.1605  VDWAALS    =        90.6340
 EELEC  =       247.6375  EHBOND  =         0.0000  RESTRAINT  =         1.2677
 EAMBER (non-restraint)  =       165.2684
 EKCMT  =        72.9685  VIRIAL  =       252.9728  VOLUME     =      1179.8363
                                                    Density    =         0.0370
 Ewald error estimate:   0.1497E-03
 ------------------------------------------------------------------------------
