-------------------------------------------------------
          Amber 16 SANDER                              2016
          -------------------------------------------------------

  [-O]verwriting output

File Assignments:

 Here is the input file:

Equilibrate water in NPT
 &cntrl

  nmropt = 0,
  ntx    = 1,       irest  = 0,       ntrx   = 1,      ntxo   = 1,
  ntpr   = 1000,    ntwx   = 1000,    ntwv   = 0,      ntwe   = 1000,
  iwrap  = 0,       ioutfm = 1,

  ntf    = 2,       ntb    = 2,
  cut = 9.0,

  ibelly = 0,       ntr    = 1,
  restraintmask = ':1',
  restraint_wt = 100.0,

  imin   = 0,
  nstlim = 10000,
  nscm   = 1000,
  t      = 0.0,     dt     = 0.002,

  temp0     = 298.0,   tempi  = 0.0,
  ig        = -1,
  ntt       = 3,
  gamma_ln  = 3.0,

  ntp    = 1,       pres0  = 1.0,     comp   = 44.6,
  taup   = 1.0,

  ntc    = 2,       tol    = 0.000001, watnam = 'WAT ',

 &end

--------------------------------------------------------------------------------
   1.  RESOURCE   USE:
--------------------------------------------------------------------------------

 getting new box info from bottom of inpcrd

 NATOM  =    2755 NTYPES =       9 NBONH =    2745 MBONA  =       9
 NTHETH =      25 MTHETA =      11 NPHIH =      43 MPHIA  =      24
 NHPARM =       0 NPARM  =       0 NNB   =    3743 NRES   =     914
 NBONA  =       9 NTHETA =      11 NPHIA =      24 NUMBND =      10
 NUMANG =      16 NPTRA  =      19 NATYP =       9 NPHB   =       1
 IFBOX  =       2 NMXRS  =      10 IFCAP =       0 NEXTRA =       0
 NCOPY  =       0

     BOX TYPE: TRUNCATED OCTAHEDRON
Note: ig = -1. Setting random seed to   501109 based on wallclock time in microseconds
      and disabling the synchronization of random numbers between tasks
      to improve performance.

--------------------------------------------------------------------------------
   2.  CONTROL  DATA  FOR  THE  RUN
--------------------------------------------------------------------------------

default_name

General flags:
     imin    =       0, nmropt  =       0

Nature and format of input:
     ntx     =       1, irest   =       0, ntrx    =       1

Nature and format of output:
     ntxo    =       1, ntpr    =    1000, ntrx    =       1, ntwr    =   10000
     iwrap   =       0, ntwx    =    1000, ntwv    =       0, ntwe    =    1000
     ioutfm  =       1, ntwprt  =       0, idecomp =       0, rbornstat=      0

Potential function:
     ntf     =       2, ntb     =       2, igb     =       0, nsnb    =      25
     ipol    =       0, gbsa    =       0, iesp    =       0
     dielc   =   1.00000, cut     =   9.00000, intdiel =   1.00000

Frozen or restrained atoms:
     ibelly  =       0, ntr     =       1
     restraint_wt = 100.00000

Molecular dynamics:
     nstlim  =     10000, nscm    =         0, nrespa  =         1
     t       =   0.00000, dt      =   0.00200, vlimit  =  20.00000

Langevin dynamics temperature regulation:
     ig      =  501109
     temp0   = 298.00000, tempi   =   0.00000, gamma_ln=   3.00000

Pressure regulation:
     ntp     =       1
     pres0   =   1.00000, comp    =  44.60000, taup    =   1.00000

SHAKE:
     ntc     =       2, jfastw  =       0
     tol     =   0.00000

Ewald parameters:
     verbose =       0, ew_type =       0, nbflag  =       1, use_pme =       1
     vdwmeth =       1, eedmeth =       1, netfrc  =       1
     Box X =   34.981   Box Y =   34.981   Box Z =   34.981
     Alpha =  109.471   Beta  =  109.471   Gamma =  109.471
     NFFT1 =   36       NFFT2 =   36       NFFT3 =   36
     Cutoff=    9.000   Tol   =0.100E-04
     Ewald Coefficient =  0.30768
     Interpolation order =    4

    LOADING THE CONSTRAINED ATOMS AS GROUPS

   5.  REFERENCE ATOM COORDINATES

  defa
     Mask :1; matches     6 atoms

--------------------------------------------------------------------------------
   3.  ATOMIC COORDINATES AND VELOCITIES
--------------------------------------------------------------------------------

defa
 begin time read from input coords =     0.000 ps

 Number of triangulated 3-point waters found:      911

     Sum of charges from parm topology file =  -0.00000000
     Forcing neutrality...

--------------------------------------------------------------------------------
   4.  RESULTS
 NSTEP =        0   TIME(PS) =       0.000  TEMP(K) =     0.00  PRESS = -4764.3
 Etot   =    -12077.6343  EKtot   =         0.0000  EPtot      =    -12077.6343
 BOND   =         0.7300  ANGLE   =         4.1179  DIHED      =        10.7879
 1-4 NB =         2.5492  1-4 EEL =        42.9320  VDWAALS    =      2212.5474
 EELEC  =    -14351.4177  EHBOND  =         0.0000  RESTRAINT  =         0.1190
 EAMBER (non-restraint)  =    -12077.7533
 EKCMT  =         0.0000  VIRIAL  =      3389.7418  VOLUME     =     32952.7826
                                                    Density    =         0.8343
 Ewald error estimate:   0.8597E-04
 ------------------------------------------------------------------------------

      A V E R A G E S   O V E R   10000 S T E P S

 NSTEP =    10000   TIME(PS) =      20.000  TEMP(K) =   293.22  PRESS =  -192.6
 Etot   =     -7137.5988  EKtot   =      1608.1839  EPtot      =     -8745.7828
 BOND   =         3.2932  ANGLE   =         9.1493  DIHED      =        11.7489
 1-4 NB =         3.3884  1-4 EEL =        44.8345  VDWAALS    =      1304.9543
 EELEC  =    -10126.2684  EHBOND  =         0.0000  RESTRAINT  =         3.1171
 EAMBER (non-restraint)  =     -8748.8998
 EKCMT  =       799.8555  VIRIAL  =       925.7637  VOLUME     =     28516.0012
                                                    Density    =         0.9656
 Ewald error estimate:   0.1960E-03
 ------------------------------------------------------------------------------

      R M S  F L U C T U A T I O N S

 NSTEP =    10000   TIME(PS) =      20.000  TEMP(K) =    27.07  PRESS =   436.5
 Etot   =       317.3255  EKtot   =       148.4696  EPtot      =       177.0050
 BOND   =         1.5320  ANGLE   =         2.6357  DIHED      =         1.3015
 1-4 NB =         0.7296  1-4 EEL =         1.7754  VDWAALS    =        89.7840
 EELEC  =       256.2970  EHBOND  =         0.0000  RESTRAINT  =         1.3519
 EAMBER (non-restraint)  =       175.6531
 EKCMT  =        72.9468  VIRIAL  =       256.2009  VOLUME     =      1159.1502
                                                    Density    =         0.0366
 Ewald error estimate:   0.1448E-03
 ------------------------------------------------------------------------------
