-------------------------------------------------------
          Amber 16 SANDER                              2016
          -------------------------------------------------------

  [-O]verwriting output

File Assignments:

 Here is the input file:

Equilibrate water in NPT
 &cntrl

  nmropt = 0,
  ntx    = 1,       irest  = 0,       ntrx   = 1,      ntxo   = 1,
  ntpr   = 1000,    ntwx   = 1000,    ntwv   = 0,      ntwe   = 1000,
  iwrap  = 0,       ioutfm = 1,

  ntf    = 2,       ntb    = 2,
  cut = 9.0,

  ibelly = 0,       ntr    = 1,
  restraintmask = ':1',
  restraint_wt = 100.0,

  imin   = 0,
  nstlim = 10000,
  nscm   = 1000,
  t      = 0.0,     dt     = 0.002,

  temp0     = 298.0,   tempi  = 0.0,
  ig        = -1,
  ntt       = 3,
  gamma_ln  = 3.0,

  ntp    = 1,       pres0  = 1.0,     comp   = 44.6,
  taup   = 1.0,

  ntc    = 2,       tol    = 0.000001, watnam = 'WAT ',

 &end

--------------------------------------------------------------------------------
   1.  RESOURCE   USE:
--------------------------------------------------------------------------------

 getting new box info from bottom of inpcrd

 NATOM  =    2956 NTYPES =       9 NBONH =    2946 MBONA  =       9
 NTHETH =      25 MTHETA =      11 NPHIH =      43 MPHIA  =      24
 NHPARM =       0 NPARM  =       0 NNB   =    4011 NRES   =     981
 NBONA  =       9 NTHETA =      11 NPHIA =      24 NUMBND =      10
 NUMANG =      16 NPTRA  =      19 NATYP =       9 NPHB   =       1
 IFBOX  =       2 NMXRS  =      10 IFCAP =       0 NEXTRA =       0
 NCOPY  =       0

     BOX TYPE: TRUNCATED OCTAHEDRON
Note: ig = -1. Setting random seed to    31285 based on wallclock time in microseconds
      and disabling the synchronization of random numbers between tasks
      to improve performance.

--------------------------------------------------------------------------------
   2.  CONTROL  DATA  FOR  THE  RUN
--------------------------------------------------------------------------------

default_name

General flags:
     imin    =       0, nmropt  =       0

Nature and format of input:
     ntx     =       1, irest   =       0, ntrx    =       1

Nature and format of output:
     ntxo    =       1, ntpr    =    1000, ntrx    =       1, ntwr    =   10000
     iwrap   =       0, ntwx    =    1000, ntwv    =       0, ntwe    =    1000
     ioutfm  =       1, ntwprt  =       0, idecomp =       0, rbornstat=      0

Potential function:
     ntf     =       2, ntb     =       2, igb     =       0, nsnb    =      25
     ipol    =       0, gbsa    =       0, iesp    =       0
     dielc   =   1.00000, cut     =   9.00000, intdiel =   1.00000

Frozen or restrained atoms:
     ibelly  =       0, ntr     =       1
     restraint_wt = 100.00000

Molecular dynamics:
     nstlim  =     10000, nscm    =         0, nrespa  =         1
     t       =   0.00000, dt      =   0.00200, vlimit  =  20.00000

Langevin dynamics temperature regulation:
     ig      =   31285
     temp0   = 298.00000, tempi   =   0.00000, gamma_ln=   3.00000

Pressure regulation:
     ntp     =       1
     pres0   =   1.00000, comp    =  44.60000, taup    =   1.00000

SHAKE:
     ntc     =       2, jfastw  =       0
     tol     =   0.00000

Ewald parameters:
     verbose =       0, ew_type =       0, nbflag  =       1, use_pme =       1
     vdwmeth =       1, eedmeth =       1, netfrc  =       1
     Box X =   35.959   Box Y =   35.959   Box Z =   35.959
     Alpha =  109.471   Beta  =  109.471   Gamma =  109.471
     NFFT1 =   36       NFFT2 =   36       NFFT3 =   36
     Cutoff=    9.000   Tol   =0.100E-04
     Ewald Coefficient =  0.30768
     Interpolation order =    4

    LOADING THE CONSTRAINED ATOMS AS GROUPS

   5.  REFERENCE ATOM COORDINATES

  defa
     Mask :1; matches     6 atoms

--------------------------------------------------------------------------------
   3.  ATOMIC COORDINATES AND VELOCITIES
--------------------------------------------------------------------------------

defa
 begin time read from input coords =     0.000 ps

 Number of triangulated 3-point waters found:      978

     Sum of charges from parm topology file =  -0.00000000
     Forcing neutrality...

--------------------------------------------------------------------------------
   4.  RESULTS
 NSTEP =        0   TIME(PS) =       0.000  TEMP(K) =     0.00  PRESS = -5593.4
 Etot   =    -12887.7644  EKtot   =         0.0000  EPtot      =    -12887.7644
 BOND   =         0.3382  ANGLE   =         1.8513  DIHED      =         9.3138
 1-4 NB =         2.8201  1-4 EEL =        47.2933  VDWAALS    =      2229.2134
 EELEC  =    -15178.8756  EHBOND  =         0.0000  RESTRAINT  =         0.2812
 EAMBER (non-restraint)  =    -12888.0455
 EKCMT  =         0.0000  VIRIAL  =      4322.6769  VOLUME     =     35793.2509
                                                    Density    =         0.8241
 Ewald error estimate:   0.1806E-03
 ------------------------------------------------------------------------------

      A V E R A G E S   O V E R   10000 S T E P S

 NSTEP =    10000   TIME(PS) =      20.000  TEMP(K) =   293.52  PRESS =  -217.2
 Etot   =     -7661.1651  EKtot   =      1727.0934  EPtot      =     -9388.2585
 BOND   =         3.0133  ANGLE   =         8.2794  DIHED      =        11.2754
 1-4 NB =         3.1180  1-4 EEL =        46.6525  VDWAALS    =      1402.0993
 EELEC  =    -10865.9154  EHBOND  =         0.0000  RESTRAINT  =         3.2190
 EAMBER (non-restraint)  =     -9391.4775
 EKCMT  =       858.1166  VIRIAL  =      1010.6697  VOLUME     =     30634.4264
                                                    Density    =         0.9644
 Ewald error estimate:   0.1850E-03
 ------------------------------------------------------------------------------

      R M S  F L U C T U A T I O N S

 NSTEP =    10000   TIME(PS) =      20.000  TEMP(K) =    26.34  PRESS =   458.7
 Etot   =       324.7789  EKtot   =       154.9790  EPtot      =       177.2148
 BOND   =         1.4697  ANGLE   =         2.4397  DIHED      =         1.1561
 1-4 NB =         0.7200  1-4 EEL =         1.9432  VDWAALS    =        86.5958
 EELEC  =       252.0705  EHBOND  =         0.0000  RESTRAINT  =         1.3265
 EAMBER (non-restraint)  =       175.8883
 EKCMT  =        75.0052  VIRIAL  =       286.4743  VOLUME     =      1273.1406
                                                    Density    =         0.0370
 Ewald error estimate:   0.1397E-03
 ------------------------------------------------------------------------------
