-------------------------------------------------------
          Amber 16 SANDER                              2016
          -------------------------------------------------------

  [-O]verwriting output

File Assignments:

 Here is the input file:

Equilibrate water in NPT
 &cntrl

  nmropt = 0,
  ntx    = 1,       irest  = 0,       ntrx   = 1,      ntxo   = 1,
  ntpr   = 1000,    ntwx   = 1000,    ntwv   = 0,      ntwe   = 1000,
  iwrap  = 0,       ioutfm = 1,

  ntf    = 2,       ntb    = 2,
  cut = 9.0,

  ibelly = 0,       ntr    = 1,
  restraintmask = ':1',
  restraint_wt = 100.0,

  imin   = 0,
  nstlim = 10000,
  nscm   = 1000,
  t      = 0.0,     dt     = 0.002,

  temp0     = 298.0,   tempi  = 0.0,
  ig        = -1,
  ntt       = 3,
  gamma_ln  = 3.0,

  ntp    = 1,       pres0  = 1.0,     comp   = 44.6,
  taup   = 1.0,

  ntc    = 2,       tol    = 0.000001, watnam = 'WAT ',

 &end

--------------------------------------------------------------------------------
   1.  RESOURCE   USE:
--------------------------------------------------------------------------------

 getting new box info from bottom of inpcrd

 NATOM  =    2962 NTYPES =       9 NBONH =    2952 MBONA  =       9
 NTHETH =      25 MTHETA =      11 NPHIH =      43 MPHIA  =      24
 NHPARM =       0 NPARM  =       0 NNB   =    4019 NRES   =     983
 NBONA  =       9 NTHETA =      11 NPHIA =      24 NUMBND =      10
 NUMANG =      16 NPTRA  =      19 NATYP =       9 NPHB   =       1
 IFBOX  =       2 NMXRS  =      10 IFCAP =       0 NEXTRA =       0
 NCOPY  =       0

     BOX TYPE: TRUNCATED OCTAHEDRON
Note: ig = -1. Setting random seed to   304576 based on wallclock time in microseconds
      and disabling the synchronization of random numbers between tasks
      to improve performance.

--------------------------------------------------------------------------------
   2.  CONTROL  DATA  FOR  THE  RUN
--------------------------------------------------------------------------------

default_name

General flags:
     imin    =       0, nmropt  =       0

Nature and format of input:
     ntx     =       1, irest   =       0, ntrx    =       1

Nature and format of output:
     ntxo    =       1, ntpr    =    1000, ntrx    =       1, ntwr    =   10000
     iwrap   =       0, ntwx    =    1000, ntwv    =       0, ntwe    =    1000
     ioutfm  =       1, ntwprt  =       0, idecomp =       0, rbornstat=      0

Potential function:
     ntf     =       2, ntb     =       2, igb     =       0, nsnb    =      25
     ipol    =       0, gbsa    =       0, iesp    =       0
     dielc   =   1.00000, cut     =   9.00000, intdiel =   1.00000

Frozen or restrained atoms:
     ibelly  =       0, ntr     =       1
     restraint_wt = 100.00000

Molecular dynamics:
     nstlim  =     10000, nscm    =         0, nrespa  =         1
     t       =   0.00000, dt      =   0.00200, vlimit  =  20.00000

Langevin dynamics temperature regulation:
     ig      =  304576
     temp0   = 298.00000, tempi   =   0.00000, gamma_ln=   3.00000

Pressure regulation:
     ntp     =       1
     pres0   =   1.00000, comp    =  44.60000, taup    =   1.00000

SHAKE:
     ntc     =       2, jfastw  =       0
     tol     =   0.00000

Ewald parameters:
     verbose =       0, ew_type =       0, nbflag  =       1, use_pme =       1
     vdwmeth =       1, eedmeth =       1, netfrc  =       1
     Box X =   35.980   Box Y =   35.980   Box Z =   35.980
     Alpha =  109.471   Beta  =  109.471   Gamma =  109.471
     NFFT1 =   36       NFFT2 =   36       NFFT3 =   36
     Cutoff=    9.000   Tol   =0.100E-04
     Ewald Coefficient =  0.30768
     Interpolation order =    4

    LOADING THE CONSTRAINED ATOMS AS GROUPS

   5.  REFERENCE ATOM COORDINATES

  defa
     Mask :1; matches     6 atoms

--------------------------------------------------------------------------------
   3.  ATOMIC COORDINATES AND VELOCITIES
--------------------------------------------------------------------------------

defa
 begin time read from input coords =     0.000 ps

 Number of triangulated 3-point waters found:      980

     Sum of charges from parm topology file =  -0.00000000
     Forcing neutrality...

--------------------------------------------------------------------------------
   4.  RESULTS
 NSTEP =        0   TIME(PS) =       0.000  TEMP(K) =     0.00  PRESS = -5688.0
 Etot   =    -12899.7624  EKtot   =         0.0000  EPtot      =    -12899.7624
 BOND   =         0.7808  ANGLE   =         3.3257  DIHED      =         8.6644
 1-4 NB =         2.2263  1-4 EEL =        43.5571  VDWAALS    =      2219.3838
 EELEC  =    -15178.0530  EHBOND  =         0.0000  RESTRAINT  =         0.3527
 EAMBER (non-restraint)  =    -12900.1150
 EKCMT  =         0.0000  VIRIAL  =      4403.4216  VOLUME     =     35855.4393
                                                    Density    =         0.8244
 Ewald error estimate:   0.4549E-04
 ------------------------------------------------------------------------------

      A V E R A G E S   O V E R   10000 S T E P S

 NSTEP =    10000   TIME(PS) =      20.000  TEMP(K) =   294.16  PRESS =  -199.5
 Etot   =     -7655.6259  EKtot   =      1734.3399  EPtot      =     -9389.9658
 BOND   =         3.4512  ANGLE   =        10.3025  DIHED      =        10.6820
 1-4 NB =         2.8071  1-4 EEL =        44.7877  VDWAALS    =      1406.3703
 EELEC  =    -10871.6220  EHBOND  =         0.0000  RESTRAINT  =         3.2554
 EAMBER (non-restraint)  =     -9393.2213
 EKCMT  =       864.5372  VIRIAL  =      1005.9855  VOLUME     =     30804.7462
                                                    Density    =         0.9611
 Ewald error estimate:   0.1889E-03
 ------------------------------------------------------------------------------

      R M S  F L U C T U A T I O N S

 NSTEP =    10000   TIME(PS) =      20.000  TEMP(K) =    26.58  PRESS =   451.1
 Etot   =       331.2763  EKtot   =       156.7176  EPtot      =       182.3507
 BOND   =         1.6163  ANGLE   =         2.5782  DIHED      =         1.1168
 1-4 NB =         0.6492  1-4 EEL =         1.7901  VDWAALS    =        88.6740
 EELEC  =       259.4249  EHBOND  =         0.0000  RESTRAINT  =         1.4001
 EAMBER (non-restraint)  =       180.9506
 EKCMT  =        77.3365  VIRIAL  =       281.5731  VOLUME     =      1299.5752
                                                    Density    =         0.0377
 Ewald error estimate:   0.1404E-03
 ------------------------------------------------------------------------------
