-------------------------------------------------------
          Amber 16 SANDER                              2016
          -------------------------------------------------------

  [-O]verwriting output

File Assignments:

 Here is the input file:

Equilibrate water in NPT
 &cntrl

  nmropt = 0,
  ntx    = 1,       irest  = 0,       ntrx   = 1,      ntxo   = 1,
  ntpr   = 1000,    ntwx   = 1000,    ntwv   = 0,      ntwe   = 1000,
  iwrap  = 0,       ioutfm = 1,

  ntf    = 2,       ntb    = 2,
  cut = 9.0,

  ibelly = 0,       ntr    = 1,
  restraintmask = ':1',
  restraint_wt = 100.0,

  imin   = 0,
  nstlim = 10000,
  nscm   = 1000,
  t      = 0.0,     dt     = 0.002,

  temp0     = 298.0,   tempi  = 0.0,
  ig        = -1,
  ntt       = 3,
  gamma_ln  = 3.0,

  ntp    = 1,       pres0  = 1.0,     comp   = 44.6,
  taup   = 1.0,

  ntc    = 2,       tol    = 0.000001, watnam = 'WAT ',

 &end

--------------------------------------------------------------------------------
   1.  RESOURCE   USE:
--------------------------------------------------------------------------------

 getting new box info from bottom of inpcrd

 NATOM  =    2749 NTYPES =       9 NBONH =    2739 MBONA  =       9
 NTHETH =      25 MTHETA =      11 NPHIH =      43 MPHIA  =      24
 NHPARM =       0 NPARM  =       0 NNB   =    3735 NRES   =     912
 NBONA  =       9 NTHETA =      11 NPHIA =      24 NUMBND =      10
 NUMANG =      16 NPTRA  =      19 NATYP =       9 NPHB   =       1
 IFBOX  =       2 NMXRS  =      10 IFCAP =       0 NEXTRA =       0
 NCOPY  =       0

     BOX TYPE: TRUNCATED OCTAHEDRON
Note: ig = -1. Setting random seed to   368283 based on wallclock time in microseconds
      and disabling the synchronization of random numbers between tasks
      to improve performance.

--------------------------------------------------------------------------------
   2.  CONTROL  DATA  FOR  THE  RUN
--------------------------------------------------------------------------------

default_name

General flags:
     imin    =       0, nmropt  =       0

Nature and format of input:
     ntx     =       1, irest   =       0, ntrx    =       1

Nature and format of output:
     ntxo    =       1, ntpr    =    1000, ntrx    =       1, ntwr    =   10000
     iwrap   =       0, ntwx    =    1000, ntwv    =       0, ntwe    =    1000
     ioutfm  =       1, ntwprt  =       0, idecomp =       0, rbornstat=      0

Potential function:
     ntf     =       2, ntb     =       2, igb     =       0, nsnb    =      25
     ipol    =       0, gbsa    =       0, iesp    =       0
     dielc   =   1.00000, cut     =   9.00000, intdiel =   1.00000

Frozen or restrained atoms:
     ibelly  =       0, ntr     =       1
     restraint_wt = 100.00000

Molecular dynamics:
     nstlim  =     10000, nscm    =         0, nrespa  =         1
     t       =   0.00000, dt      =   0.00200, vlimit  =  20.00000

Langevin dynamics temperature regulation:
     ig      =  368283
     temp0   = 298.00000, tempi   =   0.00000, gamma_ln=   3.00000

Pressure regulation:
     ntp     =       1
     pres0   =   1.00000, comp    =  44.60000, taup    =   1.00000

SHAKE:
     ntc     =       2, jfastw  =       0
     tol     =   0.00000

Ewald parameters:
     verbose =       0, ew_type =       0, nbflag  =       1, use_pme =       1
     vdwmeth =       1, eedmeth =       1, netfrc  =       1
     Box X =   34.961   Box Y =   34.961   Box Z =   34.961
     Alpha =  109.471   Beta  =  109.471   Gamma =  109.471
     NFFT1 =   36       NFFT2 =   36       NFFT3 =   36
     Cutoff=    9.000   Tol   =0.100E-04
     Ewald Coefficient =  0.30768
     Interpolation order =    4

    LOADING THE CONSTRAINED ATOMS AS GROUPS

   5.  REFERENCE ATOM COORDINATES

  defa
     Mask :1; matches     6 atoms

--------------------------------------------------------------------------------
   3.  ATOMIC COORDINATES AND VELOCITIES
--------------------------------------------------------------------------------

defa
 begin time read from input coords =     0.000 ps

 Number of triangulated 3-point waters found:      909

     Sum of charges from parm topology file =  -0.00000000
     Forcing neutrality...

--------------------------------------------------------------------------------
   4.  RESULTS
 NSTEP =        0   TIME(PS) =       0.000  TEMP(K) =     0.00  PRESS = -4803.6
 Etot   =    -12041.1568  EKtot   =         0.0000  EPtot      =    -12041.1568
 BOND   =         1.0207  ANGLE   =         8.2845  DIHED      =        10.1512
 1-4 NB =         1.9959  1-4 EEL =        40.1161  VDWAALS    =      2196.9852
 EELEC  =    -14300.0885  EHBOND  =         0.0000  RESTRAINT  =         0.3780
 EAMBER (non-restraint)  =    -12041.5348
 EKCMT  =         0.0000  VIRIAL  =      3411.6798  VOLUME     =     32894.5794
                                                    Density    =         0.8340
 Ewald error estimate:   0.1121E-04
 ------------------------------------------------------------------------------

      A V E R A G E S   O V E R   10000 S T E P S

 NSTEP =    10000   TIME(PS) =      20.000  TEMP(K) =   292.38  PRESS =  -191.8
 Etot   =     -7132.8029  EKtot   =      1600.1134  EPtot      =     -8732.9163
 BOND   =         3.3412  ANGLE   =        10.1211  DIHED      =        10.6541
 1-4 NB =         3.2455  1-4 EEL =        44.4084  VDWAALS    =      1307.3521
 EELEC  =    -10115.2552  EHBOND  =         0.0000  RESTRAINT  =         3.2164
 EAMBER (non-restraint)  =     -8736.1327
 EKCMT  =       796.8803  VIRIAL  =       922.0866  VOLUME     =     28497.3577
                                                    Density    =         0.9642
 Ewald error estimate:   0.2040E-03
 ------------------------------------------------------------------------------

      R M S  F L U C T U A T I O N S

 NSTEP =    10000   TIME(PS) =      20.000  TEMP(K) =    26.68  PRESS =   417.7
 Etot   =       308.5145  EKtot   =       145.9940  EPtot      =       169.3044
 BOND   =         1.5229  ANGLE   =         2.4222  DIHED      =         1.3526
 1-4 NB =         0.6930  1-4 EEL =         1.9990  VDWAALS    =        88.3690
 EELEC  =       248.6210  EHBOND  =         0.0000  RESTRAINT  =         1.2443
 EAMBER (non-restraint)  =       168.0601
 EKCMT  =        71.8537  VIRIAL  =       246.3815  VOLUME     =      1174.6239
                                                    Density    =         0.0369
 Ewald error estimate:   0.1547E-03
 ------------------------------------------------------------------------------
