-------------------------------------------------------
          Amber 16 SANDER                              2016
          -------------------------------------------------------

  [-O]verwriting output

File Assignments:

 Here is the input file:

Equilibrate water in NPT
 &cntrl

  nmropt = 0,
  ntx    = 1,       irest  = 0,       ntrx   = 1,      ntxo   = 1,
  ntpr   = 1000,    ntwx   = 1000,    ntwv   = 0,      ntwe   = 1000,
  iwrap  = 0,       ioutfm = 1,

  ntf    = 2,       ntb    = 2,
  cut = 9.0,

  ibelly = 0,       ntr    = 1,
  restraintmask = ':1',
  restraint_wt = 100.0,

  imin   = 0,
  nstlim = 10000,
  nscm   = 1000,
  t      = 0.0,     dt     = 0.002,

  temp0     = 298.0,   tempi  = 0.0,
  ig        = -1,
  ntt       = 3,
  gamma_ln  = 3.0,

  ntp    = 1,       pres0  = 1.0,     comp   = 44.6,
  taup   = 1.0,

  ntc    = 2,       tol    = 0.000001, watnam = 'WAT ',

 &end

--------------------------------------------------------------------------------
   1.  RESOURCE   USE:
--------------------------------------------------------------------------------

 getting new box info from bottom of inpcrd

 NATOM  =    2962 NTYPES =       9 NBONH =    2952 MBONA  =       9
 NTHETH =      25 MTHETA =      11 NPHIH =      43 MPHIA  =      24
 NHPARM =       0 NPARM  =       0 NNB   =    4019 NRES   =     983
 NBONA  =       9 NTHETA =      11 NPHIA =      24 NUMBND =      10
 NUMANG =      16 NPTRA  =      19 NATYP =       9 NPHB   =       1
 IFBOX  =       2 NMXRS  =      10 IFCAP =       0 NEXTRA =       0
 NCOPY  =       0

     BOX TYPE: TRUNCATED OCTAHEDRON
Note: ig = -1. Setting random seed to   947380 based on wallclock time in microseconds
      and disabling the synchronization of random numbers between tasks
      to improve performance.

--------------------------------------------------------------------------------
   2.  CONTROL  DATA  FOR  THE  RUN
--------------------------------------------------------------------------------

default_name

General flags:
     imin    =       0, nmropt  =       0

Nature and format of input:
     ntx     =       1, irest   =       0, ntrx    =       1

Nature and format of output:
     ntxo    =       1, ntpr    =    1000, ntrx    =       1, ntwr    =   10000
     iwrap   =       0, ntwx    =    1000, ntwv    =       0, ntwe    =    1000
     ioutfm  =       1, ntwprt  =       0, idecomp =       0, rbornstat=      0

Potential function:
     ntf     =       2, ntb     =       2, igb     =       0, nsnb    =      25
     ipol    =       0, gbsa    =       0, iesp    =       0
     dielc   =   1.00000, cut     =   9.00000, intdiel =   1.00000

Frozen or restrained atoms:
     ibelly  =       0, ntr     =       1
     restraint_wt = 100.00000

Molecular dynamics:
     nstlim  =     10000, nscm    =         0, nrespa  =         1
     t       =   0.00000, dt      =   0.00200, vlimit  =  20.00000

Langevin dynamics temperature regulation:
     ig      =  947380
     temp0   = 298.00000, tempi   =   0.00000, gamma_ln=   3.00000

Pressure regulation:
     ntp     =       1
     pres0   =   1.00000, comp    =  44.60000, taup    =   1.00000

SHAKE:
     ntc     =       2, jfastw  =       0
     tol     =   0.00000

Ewald parameters:
     verbose =       0, ew_type =       0, nbflag  =       1, use_pme =       1
     vdwmeth =       1, eedmeth =       1, netfrc  =       1
     Box X =   35.980   Box Y =   35.980   Box Z =   35.980
     Alpha =  109.471   Beta  =  109.471   Gamma =  109.471
     NFFT1 =   36       NFFT2 =   36       NFFT3 =   36
     Cutoff=    9.000   Tol   =0.100E-04
     Ewald Coefficient =  0.30768
     Interpolation order =    4

    LOADING THE CONSTRAINED ATOMS AS GROUPS

   5.  REFERENCE ATOM COORDINATES

  defa
     Mask :1; matches     6 atoms

--------------------------------------------------------------------------------
   3.  ATOMIC COORDINATES AND VELOCITIES
--------------------------------------------------------------------------------

defa
 begin time read from input coords =     0.000 ps

 Number of triangulated 3-point waters found:      980

     Sum of charges from parm topology file =  -0.00000000
     Forcing neutrality...

--------------------------------------------------------------------------------
   4.  RESULTS
 NSTEP =        0   TIME(PS) =       0.000  TEMP(K) =     0.00  PRESS = -5423.8
 Etot   =    -12921.6066  EKtot   =         0.0000  EPtot      =    -12921.6066
 BOND   =         0.2679  ANGLE   =         3.5783  DIHED      =        10.2267
 1-4 NB =         3.0786  1-4 EEL =        45.6222  VDWAALS    =      2264.3157
 EELEC  =    -15249.6991  EHBOND  =         0.0000  RESTRAINT  =         1.0031
 EAMBER (non-restraint)  =    -12922.6097
 EKCMT  =         0.0000  VIRIAL  =      4198.8540  VOLUME     =     35855.1493
                                                    Density    =         0.8244
 Ewald error estimate:   0.3235E-03
 ------------------------------------------------------------------------------

      A V E R A G E S   O V E R   10000 S T E P S

 NSTEP =    10000   TIME(PS) =      20.000  TEMP(K) =   293.11  PRESS =  -193.0
 Etot   =     -7676.5183  EKtot   =      1728.1824  EPtot      =     -9404.7007
 BOND   =         3.2681  ANGLE   =         9.9975  DIHED      =        10.9183
 1-4 NB =         3.2096  1-4 EEL =        44.1498  VDWAALS    =      1408.7102
 EELEC  =    -10888.0064  EHBOND  =         0.0000  RESTRAINT  =         3.0522
 EAMBER (non-restraint)  =     -9407.7529
 EKCMT  =       864.8088  VIRIAL  =      1002.0844  VOLUME     =     30749.7004
                                                    Density    =         0.9627
 Ewald error estimate:   0.1826E-03
 ------------------------------------------------------------------------------

      R M S  F L U C T U A T I O N S

 NSTEP =    10000   TIME(PS) =      20.000  TEMP(K) =    26.52  PRESS =   456.7
 Etot   =       332.7152  EKtot   =       156.3366  EPtot      =       183.7260
 BOND   =         1.4473  ANGLE   =         2.4494  DIHED      =         1.4778
 1-4 NB =         0.6647  1-4 EEL =         1.8374  VDWAALS    =        88.2130
 EELEC  =       262.5744  EHBOND  =         0.0000  RESTRAINT  =         1.2409
 EAMBER (non-restraint)  =       182.4851
 EKCMT  =        76.7260  VIRIAL  =       286.3254  VOLUME     =      1247.0086
                                                    Density    =         0.0361
 Ewald error estimate:   0.1399E-03
 ------------------------------------------------------------------------------
