-------------------------------------------------------
          Amber 16 SANDER                              2016
          -------------------------------------------------------

  [-O]verwriting output

File Assignments:

 Here is the input file:

Equilibrate water in NPT
 &cntrl

  nmropt = 0,
  ntx    = 1,       irest  = 0,       ntrx   = 1,      ntxo   = 1,
  ntpr   = 1000,    ntwx   = 1000,    ntwv   = 0,      ntwe   = 1000,
  iwrap  = 0,       ioutfm = 1,

  ntf    = 2,       ntb    = 2,
  cut = 9.0,

  ibelly = 0,       ntr    = 1,
  restraintmask = ':1',
  restraint_wt = 100.0,

  imin   = 0,
  nstlim = 10000,
  nscm   = 1000,
  t      = 0.0,     dt     = 0.002,

  temp0     = 298.0,   tempi  = 0.0,
  ig        = -1,
  ntt       = 3,
  gamma_ln  = 3.0,

  ntp    = 1,       pres0  = 1.0,     comp   = 44.6,
  taup   = 1.0,

  ntc    = 2,       tol    = 0.000001, watnam = 'WAT ',

 &end

--------------------------------------------------------------------------------
   1.  RESOURCE   USE:
--------------------------------------------------------------------------------

 getting new box info from bottom of inpcrd

 NATOM  =    2983 NTYPES =       9 NBONH =    2973 MBONA  =       9
 NTHETH =      25 MTHETA =      11 NPHIH =      43 MPHIA  =      24
 NHPARM =       0 NPARM  =       0 NNB   =    4047 NRES   =     990
 NBONA  =       9 NTHETA =      11 NPHIA =      24 NUMBND =      10
 NUMANG =      16 NPTRA  =      19 NATYP =       9 NPHB   =       1
 IFBOX  =       2 NMXRS  =      10 IFCAP =       0 NEXTRA =       0
 NCOPY  =       0

     BOX TYPE: TRUNCATED OCTAHEDRON
Note: ig = -1. Setting random seed to   343568 based on wallclock time in microseconds
      and disabling the synchronization of random numbers between tasks
      to improve performance.

--------------------------------------------------------------------------------
   2.  CONTROL  DATA  FOR  THE  RUN
--------------------------------------------------------------------------------

default_name

General flags:
     imin    =       0, nmropt  =       0

Nature and format of input:
     ntx     =       1, irest   =       0, ntrx    =       1

Nature and format of output:
     ntxo    =       1, ntpr    =    1000, ntrx    =       1, ntwr    =   10000
     iwrap   =       0, ntwx    =    1000, ntwv    =       0, ntwe    =    1000
     ioutfm  =       1, ntwprt  =       0, idecomp =       0, rbornstat=      0

Potential function:
     ntf     =       2, ntb     =       2, igb     =       0, nsnb    =      25
     ipol    =       0, gbsa    =       0, iesp    =       0
     dielc   =   1.00000, cut     =   9.00000, intdiel =   1.00000

Frozen or restrained atoms:
     ibelly  =       0, ntr     =       1
     restraint_wt = 100.00000

Molecular dynamics:
     nstlim  =     10000, nscm    =         0, nrespa  =         1
     t       =   0.00000, dt      =   0.00200, vlimit  =  20.00000

Langevin dynamics temperature regulation:
     ig      =  343568
     temp0   = 298.00000, tempi   =   0.00000, gamma_ln=   3.00000

Pressure regulation:
     ntp     =       1
     pres0   =   1.00000, comp    =  44.60000, taup    =   1.00000

SHAKE:
     ntc     =       2, jfastw  =       0
     tol     =   0.00000

Ewald parameters:
     verbose =       0, ew_type =       0, nbflag  =       1, use_pme =       1
     vdwmeth =       1, eedmeth =       1, netfrc  =       1
     Box X =   36.070   Box Y =   36.070   Box Z =   36.070
     Alpha =  109.471   Beta  =  109.471   Gamma =  109.471
     NFFT1 =   36       NFFT2 =   36       NFFT3 =   36
     Cutoff=    9.000   Tol   =0.100E-04
     Ewald Coefficient =  0.30768
     Interpolation order =    4

    LOADING THE CONSTRAINED ATOMS AS GROUPS

   5.  REFERENCE ATOM COORDINATES

  defa
     Mask :1; matches     6 atoms

--------------------------------------------------------------------------------
   3.  ATOMIC COORDINATES AND VELOCITIES
--------------------------------------------------------------------------------

defa
 begin time read from input coords =     0.000 ps

 Number of triangulated 3-point waters found:      987

     Sum of charges from parm topology file =  -0.00000000
     Forcing neutrality...

--------------------------------------------------------------------------------
   4.  RESULTS
 NSTEP =        0   TIME(PS) =       0.000  TEMP(K) =     0.00  PRESS = -5359.3
 Etot   =    -13036.4134  EKtot   =         0.0000  EPtot      =    -13036.4134
 BOND   =         1.0195  ANGLE   =         1.1985  DIHED      =         8.5543
 1-4 NB =         2.9905  1-4 EEL =        47.3762  VDWAALS    =      2296.1062
 EELEC  =    -15393.7619  EHBOND  =         0.0000  RESTRAINT  =         0.1032
 EAMBER (non-restraint)  =    -13036.5167
 EKCMT  =         0.0000  VIRIAL  =      4180.3261  VOLUME     =     36126.3068
                                                    Density    =         0.8240
 Ewald error estimate:   0.9931E-04
 ------------------------------------------------------------------------------

      A V E R A G E S   O V E R   10000 S T E P S

 NSTEP =    10000   TIME(PS) =      20.000  TEMP(K) =   293.36  PRESS =  -195.9
 Etot   =     -7721.7633  EKtot   =      1741.8877  EPtot      =     -9463.6510
 BOND   =         3.1285  ANGLE   =         8.3012  DIHED      =        10.8149
 1-4 NB =         3.2140  1-4 EEL =        45.8780  VDWAALS    =      1414.0836
 EELEC  =    -10952.0906  EHBOND  =         0.0000  RESTRAINT  =         3.0195
 EAMBER (non-restraint)  =     -9466.6705
 EKCMT  =       865.6048  VIRIAL  =      1005.7861  VOLUME     =     30940.3189
                                                    Density    =         0.9637
 Ewald error estimate:   0.1861E-03
 ------------------------------------------------------------------------------

      R M S  F L U C T U A T I O N S

 NSTEP =    10000   TIME(PS) =      20.000  TEMP(K) =    26.47  PRESS =   461.3
 Etot   =       342.7348  EKtot   =       157.1486  EPtot      =       194.1833
 BOND   =         1.4747  ANGLE   =         2.3150  DIHED      =         1.1337
 1-4 NB =         0.8008  1-4 EEL =         2.1871  VDWAALS    =        91.5307
 EELEC  =       274.5387  EHBOND  =         0.0000  RESTRAINT  =         1.2062
 EAMBER (non-restraint)  =       192.9771
 EKCMT  =        76.5081  VIRIAL  =       295.2589  VOLUME     =      1301.6370
                                                    Density    =         0.0375
 Ewald error estimate:   0.1436E-03
 ------------------------------------------------------------------------------
