-------------------------------------------------------
          Amber 16 SANDER                              2016
          -------------------------------------------------------

  [-O]verwriting output

File Assignments:

 Here is the input file:

Equilibrate water in NPT
 &cntrl

  nmropt = 0,
  ntx    = 1,       irest  = 0,       ntrx   = 1,      ntxo   = 1,
  ntpr   = 1000,    ntwx   = 1000,    ntwv   = 0,      ntwe   = 1000,
  iwrap  = 0,       ioutfm = 1,

  ntf    = 2,       ntb    = 2,
  cut = 9.0,

  ibelly = 0,       ntr    = 1,
  restraintmask = ':1',
  restraint_wt = 100.0,

  imin   = 0,
  nstlim = 10000,
  nscm   = 1000,
  t      = 0.0,     dt     = 0.002,

  temp0     = 298.0,   tempi  = 0.0,
  ig        = -1,
  ntt       = 3,
  gamma_ln  = 3.0,

  ntp    = 1,       pres0  = 1.0,     comp   = 44.6,
  taup   = 1.0,

  ntc    = 2,       tol    = 0.000001, watnam = 'WAT ',

 &end

--------------------------------------------------------------------------------
   1.  RESOURCE   USE:
--------------------------------------------------------------------------------

 getting new box info from bottom of inpcrd

 NATOM  =    3007 NTYPES =       9 NBONH =    2997 MBONA  =       9
 NTHETH =      25 MTHETA =      11 NPHIH =      43 MPHIA  =      24
 NHPARM =       0 NPARM  =       0 NNB   =    4079 NRES   =     998
 NBONA  =       9 NTHETA =      11 NPHIA =      24 NUMBND =      10
 NUMANG =      16 NPTRA  =      19 NATYP =       9 NPHB   =       1
 IFBOX  =       2 NMXRS  =      10 IFCAP =       0 NEXTRA =       0
 NCOPY  =       0

     BOX TYPE: TRUNCATED OCTAHEDRON
Note: ig = -1. Setting random seed to    46069 based on wallclock time in microseconds
      and disabling the synchronization of random numbers between tasks
      to improve performance.

--------------------------------------------------------------------------------
   2.  CONTROL  DATA  FOR  THE  RUN
--------------------------------------------------------------------------------

default_name

General flags:
     imin    =       0, nmropt  =       0

Nature and format of input:
     ntx     =       1, irest   =       0, ntrx    =       1

Nature and format of output:
     ntxo    =       1, ntpr    =    1000, ntrx    =       1, ntwr    =   10000
     iwrap   =       0, ntwx    =    1000, ntwv    =       0, ntwe    =    1000
     ioutfm  =       1, ntwprt  =       0, idecomp =       0, rbornstat=      0

Potential function:
     ntf     =       2, ntb     =       2, igb     =       0, nsnb    =      25
     ipol    =       0, gbsa    =       0, iesp    =       0
     dielc   =   1.00000, cut     =   9.00000, intdiel =   1.00000

Frozen or restrained atoms:
     ibelly  =       0, ntr     =       1
     restraint_wt = 100.00000

Molecular dynamics:
     nstlim  =     10000, nscm    =         0, nrespa  =         1
     t       =   0.00000, dt      =   0.00200, vlimit  =  20.00000

Langevin dynamics temperature regulation:
     ig      =   46069
     temp0   = 298.00000, tempi   =   0.00000, gamma_ln=   3.00000

Pressure regulation:
     ntp     =       1
     pres0   =   1.00000, comp    =  44.60000, taup    =   1.00000

SHAKE:
     ntc     =       2, jfastw  =       0
     tol     =   0.00000

Ewald parameters:
     verbose =       0, ew_type =       0, nbflag  =       1, use_pme =       1
     vdwmeth =       1, eedmeth =       1, netfrc  =       1
     Box X =   36.116   Box Y =   36.116   Box Z =   36.116
     Alpha =  109.471   Beta  =  109.471   Gamma =  109.471
     NFFT1 =   36       NFFT2 =   36       NFFT3 =   36
     Cutoff=    9.000   Tol   =0.100E-04
     Ewald Coefficient =  0.30768
     Interpolation order =    4

    LOADING THE CONSTRAINED ATOMS AS GROUPS

   5.  REFERENCE ATOM COORDINATES

  defa
     Mask :1; matches     6 atoms

--------------------------------------------------------------------------------
   3.  ATOMIC COORDINATES AND VELOCITIES
--------------------------------------------------------------------------------

defa
 begin time read from input coords =     0.000 ps

 Number of triangulated 3-point waters found:      995

     Sum of charges from parm topology file =  -0.00000000
     Forcing neutrality...

--------------------------------------------------------------------------------
   4.  RESULTS
 NSTEP =        0   TIME(PS) =       0.000  TEMP(K) =     0.00  PRESS = -5452.2
 Etot   =    -13151.9088  EKtot   =         0.0000  EPtot      =    -13151.9088
 BOND   =         0.7275  ANGLE   =         2.1599  DIHED      =        11.7172
 1-4 NB =         3.0143  1-4 EEL =        46.8612  VDWAALS    =      2300.4956
 EELEC  =    -15516.9778  EHBOND  =         0.0000  RESTRAINT  =         0.0933
 EAMBER (non-restraint)  =    -13152.0021
 EKCMT  =         0.0000  VIRIAL  =      4268.8589  VOLUME     =     36263.1700
                                                    Density    =         0.8275
 Ewald error estimate:   0.3020E-03
 ------------------------------------------------------------------------------

      A V E R A G E S   O V E R   10000 S T E P S

 NSTEP =    10000   TIME(PS) =      20.000  TEMP(K) =   292.07  PRESS =  -199.3
 Etot   =     -7822.0946  EKtot   =      1748.1614  EPtot      =     -9570.2560
 BOND   =         3.1864  ANGLE   =         9.5504  DIHED      =        11.7448
 1-4 NB =         3.1416  1-4 EEL =        45.7497  VDWAALS    =      1438.4353
 EELEC  =    -11085.2453  EHBOND  =         0.0000  RESTRAINT  =         3.1811
 EAMBER (non-restraint)  =     -9573.4371
 EKCMT  =       872.1867  VIRIAL  =      1015.1643  VOLUME     =     31147.6282
                                                    Density    =         0.9647
 Ewald error estimate:   0.1864E-03
 ------------------------------------------------------------------------------

      R M S  F L U C T U A T I O N S

 NSTEP =    10000   TIME(PS) =      20.000  TEMP(K) =    26.18  PRESS =   463.6
 Etot   =       328.7157  EKtot   =       156.6882  EPtot      =       178.1992
 BOND   =         1.4741  ANGLE   =         2.3433  DIHED      =         1.3762
 1-4 NB =         0.7258  1-4 EEL =         2.0679  VDWAALS    =        84.7071
 EELEC  =       253.1690  EHBOND  =         0.0000  RESTRAINT  =         1.4122
 EAMBER (non-restraint)  =       176.7870
 EKCMT  =        76.7812  VIRIAL  =       295.3931  VOLUME     =      1207.8544
                                                    Density    =         0.0346
 Ewald error estimate:   0.1401E-03
 ------------------------------------------------------------------------------
