-------------------------------------------------------
          Amber 16 SANDER                              2016
          -------------------------------------------------------

  [-O]verwriting output

File Assignments:

 Here is the input file:

Equilibrate water in NPT
 &cntrl

  nmropt = 0,
  ntx    = 1,       irest  = 0,       ntrx   = 1,      ntxo   = 1,
  ntpr   = 1000,    ntwx   = 1000,    ntwv   = 0,      ntwe   = 1000,
  iwrap  = 0,       ioutfm = 1,

  ntf    = 2,       ntb    = 2,
  cut = 9.0,

  ibelly = 0,       ntr    = 1,
  restraintmask = ':1',
  restraint_wt = 100.0,

  imin   = 0,
  nstlim = 10000,
  nscm   = 1000,
  t      = 0.0,     dt     = 0.002,

  temp0     = 298.0,   tempi  = 0.0,
  ig        = -1,
  ntt       = 3,
  gamma_ln  = 3.0,

  ntp    = 1,       pres0  = 1.0,     comp   = 44.6,
  taup   = 1.0,

  ntc    = 2,       tol    = 0.000001, watnam = 'WAT ',

 &end

--------------------------------------------------------------------------------
   1.  RESOURCE   USE:
--------------------------------------------------------------------------------

 getting new box info from bottom of inpcrd

 NATOM  =    3118 NTYPES =       9 NBONH =    3108 MBONA  =       9
 NTHETH =      25 MTHETA =      11 NPHIH =      43 MPHIA  =      24
 NHPARM =       0 NPARM  =       0 NNB   =    4227 NRES   =    1035
 NBONA  =       9 NTHETA =      11 NPHIA =      24 NUMBND =      10
 NUMANG =      16 NPTRA  =      19 NATYP =       9 NPHB   =       1
 IFBOX  =       2 NMXRS  =      10 IFCAP =       0 NEXTRA =       0
 NCOPY  =       0

     BOX TYPE: TRUNCATED OCTAHEDRON
Note: ig = -1. Setting random seed to   555823 based on wallclock time in microseconds
      and disabling the synchronization of random numbers between tasks
      to improve performance.

--------------------------------------------------------------------------------
   2.  CONTROL  DATA  FOR  THE  RUN
--------------------------------------------------------------------------------

default_name

General flags:
     imin    =       0, nmropt  =       0

Nature and format of input:
     ntx     =       1, irest   =       0, ntrx    =       1

Nature and format of output:
     ntxo    =       1, ntpr    =    1000, ntrx    =       1, ntwr    =   10000
     iwrap   =       0, ntwx    =    1000, ntwv    =       0, ntwe    =    1000
     ioutfm  =       1, ntwprt  =       0, idecomp =       0, rbornstat=      0

Potential function:
     ntf     =       2, ntb     =       2, igb     =       0, nsnb    =      25
     ipol    =       0, gbsa    =       0, iesp    =       0
     dielc   =   1.00000, cut     =   9.00000, intdiel =   1.00000

Frozen or restrained atoms:
     ibelly  =       0, ntr     =       1
     restraint_wt = 100.00000

Molecular dynamics:
     nstlim  =     10000, nscm    =         0, nrespa  =         1
     t       =   0.00000, dt      =   0.00200, vlimit  =  20.00000

Langevin dynamics temperature regulation:
     ig      =  555823
     temp0   = 298.00000, tempi   =   0.00000, gamma_ln=   3.00000

Pressure regulation:
     ntp     =       1
     pres0   =   1.00000, comp    =  44.60000, taup    =   1.00000

SHAKE:
     ntc     =       2, jfastw  =       0
     tol     =   0.00000

Ewald parameters:
     verbose =       0, ew_type =       0, nbflag  =       1, use_pme =       1
     vdwmeth =       1, eedmeth =       1, netfrc  =       1
     Box X =   36.448   Box Y =   36.448   Box Z =   36.448
     Alpha =  109.471   Beta  =  109.471   Gamma =  109.471
     NFFT1 =   36       NFFT2 =   36       NFFT3 =   36
     Cutoff=    9.000   Tol   =0.100E-04
     Ewald Coefficient =  0.30768
     Interpolation order =    4

    LOADING THE CONSTRAINED ATOMS AS GROUPS

   5.  REFERENCE ATOM COORDINATES

  defa
     Mask :1; matches     6 atoms

--------------------------------------------------------------------------------
   3.  ATOMIC COORDINATES AND VELOCITIES
--------------------------------------------------------------------------------

defa
 begin time read from input coords =     0.000 ps

 Number of triangulated 3-point waters found:     1032

     Sum of charges from parm topology file =  -0.00000000
     Forcing neutrality...

--------------------------------------------------------------------------------
   4.  RESULTS
 NSTEP =        0   TIME(PS) =       0.000  TEMP(K) =     0.00  PRESS = -5311.6
 Etot   =    -13594.6098  EKtot   =         0.0000  EPtot      =    -13594.6098
 BOND   =         0.5721  ANGLE   =         1.4172  DIHED      =         8.5913
 1-4 NB =         3.0749  1-4 EEL =        47.0655  VDWAALS    =      2401.2088
 EELEC  =    -16056.7169  EHBOND  =         0.0000  RESTRAINT  =         0.1774
 EAMBER (non-restraint)  =    -13594.7872
 EKCMT  =         0.0000  VIRIAL  =      4274.6376  VOLUME     =     37272.9423
                                                    Density    =         0.8347
 Ewald error estimate:   0.1542E-03
 ------------------------------------------------------------------------------

      A V E R A G E S   O V E R   10000 S T E P S

 NSTEP =    10000   TIME(PS) =      20.000  TEMP(K) =   293.27  PRESS =  -182.8
 Etot   =     -8097.8431  EKtot   =      1820.0515  EPtot      =     -9917.8945
 BOND   =         2.9285  ANGLE   =         8.0178  DIHED      =        11.2290
 1-4 NB =         3.1220  1-4 EEL =        46.1922  VDWAALS    =      1485.1039
 EELEC  =    -11477.5666  EHBOND  =         0.0000  RESTRAINT  =         3.0788
 EAMBER (non-restraint)  =     -9920.9733
 EKCMT  =       905.0210  VIRIAL  =      1040.7600  VOLUME     =     32209.0266
                                                    Density    =         0.9674
 Ewald error estimate:   0.1846E-03
 ------------------------------------------------------------------------------

      R M S  F L U C T U A T I O N S

 NSTEP =    10000   TIME(PS) =      20.000  TEMP(K) =    25.99  PRESS =   451.6
 Etot   =       339.9249  EKtot   =       161.2710  EPtot      =       185.5524
 BOND   =         1.3687  ANGLE   =         2.2429  DIHED      =         1.3038
 1-4 NB =         0.7518  1-4 EEL =         1.9775  VDWAALS    =        92.6859
 EELEC  =       266.1923  EHBOND  =         0.0000  RESTRAINT  =         1.3019
 EAMBER (non-restraint)  =       184.2505
 EKCMT  =        78.0042  VIRIAL  =       299.4239  VOLUME     =      1269.4221
                                                    Density    =         0.0355
 Ewald error estimate:   0.1431E-03
 ------------------------------------------------------------------------------
