-------------------------------------------------------
          Amber 16 SANDER                              2016
          -------------------------------------------------------

  [-O]verwriting output

File Assignments:

 Here is the input file:

Equilibrate water in NPT
 &cntrl

  nmropt = 0,
  ntx    = 1,       irest  = 0,       ntrx   = 1,      ntxo   = 1,
  ntpr   = 1000,    ntwx   = 1000,    ntwv   = 0,      ntwe   = 1000,
  iwrap  = 0,       ioutfm = 1,

  ntf    = 2,       ntb    = 2,
  cut = 9.0,

  ibelly = 0,       ntr    = 1,
  restraintmask = ':1',
  restraint_wt = 100.0,

  imin   = 0,
  nstlim = 10000,
  nscm   = 1000,
  t      = 0.0,     dt     = 0.002,

  temp0     = 298.0,   tempi  = 0.0,
  ig        = -1,
  ntt       = 3,
  gamma_ln  = 3.0,

  ntp    = 1,       pres0  = 1.0,     comp   = 44.6,
  taup   = 1.0,

  ntc    = 2,       tol    = 0.000001, watnam = 'WAT ',

 &end

--------------------------------------------------------------------------------
   1.  RESOURCE   USE:
--------------------------------------------------------------------------------

 getting new box info from bottom of inpcrd

 NATOM  =    3103 NTYPES =       9 NBONH =    3093 MBONA  =       9
 NTHETH =      25 MTHETA =      11 NPHIH =      43 MPHIA  =      24
 NHPARM =       0 NPARM  =       0 NNB   =    4207 NRES   =    1030
 NBONA  =       9 NTHETA =      11 NPHIA =      24 NUMBND =      10
 NUMANG =      16 NPTRA  =      19 NATYP =       9 NPHB   =       1
 IFBOX  =       2 NMXRS  =      10 IFCAP =       0 NEXTRA =       0
 NCOPY  =       0

     BOX TYPE: TRUNCATED OCTAHEDRON
Note: ig = -1. Setting random seed to   124514 based on wallclock time in microseconds
      and disabling the synchronization of random numbers between tasks
      to improve performance.

--------------------------------------------------------------------------------
   2.  CONTROL  DATA  FOR  THE  RUN
--------------------------------------------------------------------------------

default_name

General flags:
     imin    =       0, nmropt  =       0

Nature and format of input:
     ntx     =       1, irest   =       0, ntrx    =       1

Nature and format of output:
     ntxo    =       1, ntpr    =    1000, ntrx    =       1, ntwr    =   10000
     iwrap   =       0, ntwx    =    1000, ntwv    =       0, ntwe    =    1000
     ioutfm  =       1, ntwprt  =       0, idecomp =       0, rbornstat=      0

Potential function:
     ntf     =       2, ntb     =       2, igb     =       0, nsnb    =      25
     ipol    =       0, gbsa    =       0, iesp    =       0
     dielc   =   1.00000, cut     =   9.00000, intdiel =   1.00000

Frozen or restrained atoms:
     ibelly  =       0, ntr     =       1
     restraint_wt = 100.00000

Molecular dynamics:
     nstlim  =     10000, nscm    =         0, nrespa  =         1
     t       =   0.00000, dt      =   0.00200, vlimit  =  20.00000

Langevin dynamics temperature regulation:
     ig      =  124514
     temp0   = 298.00000, tempi   =   0.00000, gamma_ln=   3.00000

Pressure regulation:
     ntp     =       1
     pres0   =   1.00000, comp    =  44.60000, taup    =   1.00000

SHAKE:
     ntc     =       2, jfastw  =       0
     tol     =   0.00000

Ewald parameters:
     verbose =       0, ew_type =       0, nbflag  =       1, use_pme =       1
     vdwmeth =       1, eedmeth =       1, netfrc  =       1
     Box X =   36.442   Box Y =   36.442   Box Z =   36.442
     Alpha =  109.471   Beta  =  109.471   Gamma =  109.471
     NFFT1 =   36       NFFT2 =   36       NFFT3 =   36
     Cutoff=    9.000   Tol   =0.100E-04
     Ewald Coefficient =  0.30768
     Interpolation order =    4

    LOADING THE CONSTRAINED ATOMS AS GROUPS

   5.  REFERENCE ATOM COORDINATES

  defa
     Mask :1; matches     6 atoms

--------------------------------------------------------------------------------
   3.  ATOMIC COORDINATES AND VELOCITIES
--------------------------------------------------------------------------------

defa
 begin time read from input coords =     0.000 ps

 Number of triangulated 3-point waters found:     1027

     Sum of charges from parm topology file =  -0.00000000
     Forcing neutrality...

--------------------------------------------------------------------------------
   4.  RESULTS
 NSTEP =        0   TIME(PS) =       0.000  TEMP(K) =     0.00  PRESS = -5024.3
 Etot   =    -13581.6200  EKtot   =         0.0000  EPtot      =    -13581.6200
 BOND   =         0.6246  ANGLE   =         0.7918  DIHED      =         8.5511
 1-4 NB =         2.9441  1-4 EEL =        46.9911  VDWAALS    =      2447.8338
 EELEC  =    -16089.4031  EHBOND  =         0.0000  RESTRAINT  =         0.0465
 EAMBER (non-restraint)  =    -13581.6665
 EKCMT  =         0.0000  VIRIAL  =      4041.3493  VOLUME     =     37254.2864
                                                    Density    =         0.8312
 Ewald error estimate:   0.1107E-03
 ------------------------------------------------------------------------------

      A V E R A G E S   O V E R   10000 S T E P S

 NSTEP =    10000   TIME(PS) =      20.000  TEMP(K) =   292.82  PRESS =  -184.1
 Etot   =     -8060.3914  EKtot   =      1808.5165  EPtot      =     -9868.9079
 BOND   =         3.0797  ANGLE   =         7.9163  DIHED      =        10.6764
 1-4 NB =         3.1417  1-4 EEL =        46.0378  VDWAALS    =      1478.2645
 EELEC  =    -11421.1855  EHBOND  =         0.0000  RESTRAINT  =         3.1612
 EAMBER (non-restraint)  =     -9872.0691
 EKCMT  =       900.4981  VIRIAL  =      1037.0339  VOLUME     =     32060.0892
                                                    Density    =         0.9673
 Ewald error estimate:   0.1765E-03
 ------------------------------------------------------------------------------

      R M S  F L U C T U A T I O N S

 NSTEP =    10000   TIME(PS) =      20.000  TEMP(K) =    26.24  PRESS =   443.5
 Etot   =       346.7101  EKtot   =       162.0578  EPtot      =       193.5461
 BOND   =         1.4072  ANGLE   =         2.2332  DIHED      =         1.1350
 1-4 NB =         0.7129  1-4 EEL =         2.0961  VDWAALS    =        96.5266
 EELEC  =       279.4185  EHBOND  =         0.0000  RESTRAINT  =         1.2879
 EAMBER (non-restraint)  =       192.2582
 EKCMT  =        77.8413  VIRIAL  =       295.1799  VOLUME     =      1303.5641
                                                    Density    =         0.0364
 Ewald error estimate:   0.1322E-03
 ------------------------------------------------------------------------------
