-------------------------------------------------------
          Amber 16 SANDER                              2016
          -------------------------------------------------------

  [-O]verwriting output

File Assignments:

 Here is the input file:

Equilibrate water in NPT
 &cntrl

  nmropt = 0,
  ntx    = 1,       irest  = 0,       ntrx   = 1,      ntxo   = 1,
  ntpr   = 1000,    ntwx   = 1000,    ntwv   = 0,      ntwe   = 1000,
  iwrap  = 0,       ioutfm = 1,

  ntf    = 2,       ntb    = 2,
  cut = 9.0,

  ibelly = 0,       ntr    = 1,
  restraintmask = ':1',
  restraint_wt = 100.0,

  imin   = 0,
  nstlim = 10000,
  nscm   = 1000,
  t      = 0.0,     dt     = 0.002,

  temp0     = 298.0,   tempi  = 0.0,
  ig        = -1,
  ntt       = 3,
  gamma_ln  = 3.0,

  ntp    = 1,       pres0  = 1.0,     comp   = 44.6,
  taup   = 1.0,

  ntc    = 2,       tol    = 0.000001, watnam = 'WAT ',

 &end

--------------------------------------------------------------------------------
   1.  RESOURCE   USE:
--------------------------------------------------------------------------------

 getting new box info from bottom of inpcrd

 NATOM  =    2854 NTYPES =       9 NBONH =    2844 MBONA  =       9
 NTHETH =      25 MTHETA =      11 NPHIH =      43 MPHIA  =      24
 NHPARM =       0 NPARM  =       0 NNB   =    3875 NRES   =     947
 NBONA  =       9 NTHETA =      11 NPHIA =      24 NUMBND =      10
 NUMANG =      16 NPTRA  =      19 NATYP =       9 NPHB   =       1
 IFBOX  =       2 NMXRS  =      10 IFCAP =       0 NEXTRA =       0
 NCOPY  =       0

     BOX TYPE: TRUNCATED OCTAHEDRON
Note: ig = -1. Setting random seed to   295505 based on wallclock time in microseconds
      and disabling the synchronization of random numbers between tasks
      to improve performance.

--------------------------------------------------------------------------------
   2.  CONTROL  DATA  FOR  THE  RUN
--------------------------------------------------------------------------------

default_name

General flags:
     imin    =       0, nmropt  =       0

Nature and format of input:
     ntx     =       1, irest   =       0, ntrx    =       1

Nature and format of output:
     ntxo    =       1, ntpr    =    1000, ntrx    =       1, ntwr    =   10000
     iwrap   =       0, ntwx    =    1000, ntwv    =       0, ntwe    =    1000
     ioutfm  =       1, ntwprt  =       0, idecomp =       0, rbornstat=      0

Potential function:
     ntf     =       2, ntb     =       2, igb     =       0, nsnb    =      25
     ipol    =       0, gbsa    =       0, iesp    =       0
     dielc   =   1.00000, cut     =   9.00000, intdiel =   1.00000

Frozen or restrained atoms:
     ibelly  =       0, ntr     =       1
     restraint_wt = 100.00000

Molecular dynamics:
     nstlim  =     10000, nscm    =         0, nrespa  =         1
     t       =   0.00000, dt      =   0.00200, vlimit  =  20.00000

Langevin dynamics temperature regulation:
     ig      =  295505
     temp0   = 298.00000, tempi   =   0.00000, gamma_ln=   3.00000

Pressure regulation:
     ntp     =       1
     pres0   =   1.00000, comp    =  44.60000, taup    =   1.00000

SHAKE:
     ntc     =       2, jfastw  =       0
     tol     =   0.00000

Ewald parameters:
     verbose =       0, ew_type =       0, nbflag  =       1, use_pme =       1
     vdwmeth =       1, eedmeth =       1, netfrc  =       1
     Box X =   35.530   Box Y =   35.530   Box Z =   35.530
     Alpha =  109.471   Beta  =  109.471   Gamma =  109.471
     NFFT1 =   36       NFFT2 =   36       NFFT3 =   36
     Cutoff=    9.000   Tol   =0.100E-04
     Ewald Coefficient =  0.30768
     Interpolation order =    4

    LOADING THE CONSTRAINED ATOMS AS GROUPS

   5.  REFERENCE ATOM COORDINATES

  defa
     Mask :1; matches     6 atoms

--------------------------------------------------------------------------------
   3.  ATOMIC COORDINATES AND VELOCITIES
--------------------------------------------------------------------------------

defa
 begin time read from input coords =     0.000 ps

 Number of triangulated 3-point waters found:      944

     Sum of charges from parm topology file =  -0.00000000
     Forcing neutrality...

--------------------------------------------------------------------------------
   4.  RESULTS
 NSTEP =        0   TIME(PS) =       0.000  TEMP(K) =     0.00  PRESS = -5114.8
 Etot   =    -12476.8248  EKtot   =         0.0000  EPtot      =    -12476.8248
 BOND   =         0.6237  ANGLE   =         1.7079  DIHED      =         9.8062
 1-4 NB =         3.1101  1-4 EEL =        44.7252  VDWAALS    =      2239.1318
 EELEC  =    -14776.0150  EHBOND  =         0.0000  RESTRAINT  =         0.0853
 EAMBER (non-restraint)  =    -12476.9101
 EKCMT  =         0.0000  VIRIAL  =      3813.0547  VOLUME     =     34527.6985
                                                    Density    =         0.8249
 Ewald error estimate:   0.2801E-06
 ------------------------------------------------------------------------------

      A V E R A G E S   O V E R   10000 S T E P S

 NSTEP =    10000   TIME(PS) =      20.000  TEMP(K) =   293.30  PRESS =  -196.5
 Etot   =     -7392.9785  EKtot   =      1666.3544  EPtot      =     -9059.3329
 BOND   =         3.2655  ANGLE   =         8.5583  DIHED      =        10.9555
 1-4 NB =         3.5369  1-4 EEL =        43.8041  VDWAALS    =      1359.5864
 EELEC  =    -10492.2210  EHBOND  =         0.0000  RESTRAINT  =         3.1814
 EAMBER (non-restraint)  =     -9062.5143
 EKCMT  =       831.6210  VIRIAL  =       965.9898  VOLUME     =     29677.1474
                                                    Density    =         0.9613
 Ewald error estimate:   0.1917E-03
 ------------------------------------------------------------------------------

      R M S  F L U C T U A T I O N S

 NSTEP =    10000   TIME(PS) =      20.000  TEMP(K) =    26.27  PRESS =   426.5
 Etot   =       316.9723  EKtot   =       149.2565  EPtot      =       174.1164
 BOND   =         1.5089  ANGLE   =         2.3032  DIHED      =         1.2806
 1-4 NB =         0.8176  1-4 EEL =         1.8815  VDWAALS    =        89.4802
 EELEC  =       254.6089  EHBOND  =         0.0000  RESTRAINT  =         1.3022
 EAMBER (non-restraint)  =       172.8142
 EKCMT  =        73.0247  VIRIAL  =       258.6881  VOLUME     =      1259.1237
                                                    Density    =         0.0377
 Ewald error estimate:   0.1487E-03
 ------------------------------------------------------------------------------
