-------------------------------------------------------
          Amber 16 SANDER                              2016
          -------------------------------------------------------

  [-O]verwriting output

File Assignments:

 Here is the input file:

Equilibrate water in NPT
 &cntrl

  nmropt = 0,
  ntx    = 1,       irest  = 0,       ntrx   = 1,      ntxo   = 1,
  ntpr   = 1000,    ntwx   = 1000,    ntwv   = 0,      ntwe   = 1000,
  iwrap  = 0,       ioutfm = 1,

  ntf    = 2,       ntb    = 2,
  cut = 9.0,

  ibelly = 0,       ntr    = 1,
  restraintmask = ':1',
  restraint_wt = 100.0,

  imin   = 0,
  nstlim = 10000,
  nscm   = 1000,
  t      = 0.0,     dt     = 0.002,

  temp0     = 298.0,   tempi  = 0.0,
  ig        = -1,
  ntt       = 3,
  gamma_ln  = 3.0,

  ntp    = 1,       pres0  = 1.0,     comp   = 44.6,
  taup   = 1.0,

  ntc    = 2,       tol    = 0.000001, watnam = 'WAT ',

 &end

--------------------------------------------------------------------------------
   1.  RESOURCE   USE:
--------------------------------------------------------------------------------

 getting new box info from bottom of inpcrd

 NATOM  =    3049 NTYPES =       9 NBONH =    3039 MBONA  =       9
 NTHETH =      25 MTHETA =      11 NPHIH =      43 MPHIA  =      24
 NHPARM =       0 NPARM  =       0 NNB   =    4135 NRES   =    1012
 NBONA  =       9 NTHETA =      11 NPHIA =      24 NUMBND =      10
 NUMANG =      16 NPTRA  =      19 NATYP =       9 NPHB   =       1
 IFBOX  =       2 NMXRS  =      10 IFCAP =       0 NEXTRA =       0
 NCOPY  =       0

     BOX TYPE: TRUNCATED OCTAHEDRON
Note: ig = -1. Setting random seed to   898449 based on wallclock time in microseconds
      and disabling the synchronization of random numbers between tasks
      to improve performance.

--------------------------------------------------------------------------------
   2.  CONTROL  DATA  FOR  THE  RUN
--------------------------------------------------------------------------------

default_name

General flags:
     imin    =       0, nmropt  =       0

Nature and format of input:
     ntx     =       1, irest   =       0, ntrx    =       1

Nature and format of output:
     ntxo    =       1, ntpr    =    1000, ntrx    =       1, ntwr    =   10000
     iwrap   =       0, ntwx    =    1000, ntwv    =       0, ntwe    =    1000
     ioutfm  =       1, ntwprt  =       0, idecomp =       0, rbornstat=      0

Potential function:
     ntf     =       2, ntb     =       2, igb     =       0, nsnb    =      25
     ipol    =       0, gbsa    =       0, iesp    =       0
     dielc   =   1.00000, cut     =   9.00000, intdiel =   1.00000

Frozen or restrained atoms:
     ibelly  =       0, ntr     =       1
     restraint_wt = 100.00000

Molecular dynamics:
     nstlim  =     10000, nscm    =         0, nrespa  =         1
     t       =   0.00000, dt      =   0.00200, vlimit  =  20.00000

Langevin dynamics temperature regulation:
     ig      =  898449
     temp0   = 298.00000, tempi   =   0.00000, gamma_ln=   3.00000

Pressure regulation:
     ntp     =       1
     pres0   =   1.00000, comp    =  44.60000, taup    =   1.00000

SHAKE:
     ntc     =       2, jfastw  =       0
     tol     =   0.00000

Ewald parameters:
     verbose =       0, ew_type =       0, nbflag  =       1, use_pme =       1
     vdwmeth =       1, eedmeth =       1, netfrc  =       1
     Box X =   36.252   Box Y =   36.252   Box Z =   36.252
     Alpha =  109.471   Beta  =  109.471   Gamma =  109.471
     NFFT1 =   36       NFFT2 =   36       NFFT3 =   36
     Cutoff=    9.000   Tol   =0.100E-04
     Ewald Coefficient =  0.30768
     Interpolation order =    4

    LOADING THE CONSTRAINED ATOMS AS GROUPS

   5.  REFERENCE ATOM COORDINATES

  defa
     Mask :1; matches     6 atoms

--------------------------------------------------------------------------------
   3.  ATOMIC COORDINATES AND VELOCITIES
--------------------------------------------------------------------------------

defa
 begin time read from input coords =     0.000 ps

 Number of triangulated 3-point waters found:     1009

     Sum of charges from parm topology file =  -0.00000000
     Forcing neutrality...

--------------------------------------------------------------------------------
   4.  RESULTS
 NSTEP =        0   TIME(PS) =       0.000  TEMP(K) =     0.00  PRESS = -5500.1
 Etot   =    -13308.1753  EKtot   =         0.0000  EPtot      =    -13308.1753
 BOND   =         0.7822  ANGLE   =         1.8535  DIHED      =        11.1138
 1-4 NB =         3.0654  1-4 EEL =        46.8101  VDWAALS    =      2326.5617
 EELEC  =    -15698.9939  EHBOND  =         0.0000  RESTRAINT  =         0.6319
 EAMBER (non-restraint)  =    -13308.8072
 EKCMT  =         0.0000  VIRIAL  =      4355.2785  VOLUME     =     36675.1107
                                                    Density    =         0.8296
 Ewald error estimate:   0.9514E-04
 ------------------------------------------------------------------------------

      A V E R A G E S   O V E R   10000 S T E P S

 NSTEP =    10000   TIME(PS) =      20.000  TEMP(K) =   292.98  PRESS =  -199.8
 Etot   =     -7919.2385  EKtot   =      1778.0425  EPtot      =     -9697.2810
 BOND   =         3.3565  ANGLE   =         9.9230  DIHED      =        11.2109
 1-4 NB =         2.9653  1-4 EEL =        44.9010  VDWAALS    =      1450.0701
 EELEC  =    -11222.8823  EHBOND  =         0.0000  RESTRAINT  =         3.1745
 EAMBER (non-restraint)  =     -9700.4556
 EKCMT  =       886.0030  VIRIAL  =      1030.8929  VOLUME     =     31444.3769
                                                    Density    =         0.9690
 Ewald error estimate:   0.1931E-03
 ------------------------------------------------------------------------------

      R M S  F L U C T U A T I O N S

 NSTEP =    10000   TIME(PS) =      20.000  TEMP(K) =    26.09  PRESS =   453.9
 Etot   =       334.7223  EKtot   =       158.3410  EPtot      =       183.4087
 BOND   =         1.5715  ANGLE   =         2.5918  DIHED      =         1.3027
 1-4 NB =         0.6622  1-4 EEL =         1.8747  VDWAALS    =        88.9180
 EELEC  =       263.5535  EHBOND  =         0.0000  RESTRAINT  =         1.3887
 EAMBER (non-restraint)  =       182.0200
 EKCMT  =        77.5070  VIRIAL  =       292.0037  VOLUME     =      1242.2132
                                                    Density    =         0.0353
 Ewald error estimate:   0.1428E-03
 ------------------------------------------------------------------------------
