-------------------------------------------------------
          Amber 16 SANDER                              2016
          -------------------------------------------------------

  [-O]verwriting output

File Assignments:

 Here is the input file:

Equilibrate water in NPT
 &cntrl

  nmropt = 0,
  ntx    = 1,       irest  = 0,       ntrx   = 1,      ntxo   = 1,
  ntpr   = 1000,    ntwx   = 1000,    ntwv   = 0,      ntwe   = 1000,
  iwrap  = 0,       ioutfm = 1,

  ntf    = 2,       ntb    = 2,
  cut = 9.0,

  ibelly = 0,       ntr    = 1,
  restraintmask = ':1',
  restraint_wt = 100.0,

  imin   = 0,
  nstlim = 10000,
  nscm   = 1000,
  t      = 0.0,     dt     = 0.002,

  temp0     = 298.0,   tempi  = 0.0,
  ig        = -1,
  ntt       = 3,
  gamma_ln  = 3.0,

  ntp    = 1,       pres0  = 1.0,     comp   = 44.6,
  taup   = 1.0,

  ntc    = 2,       tol    = 0.000001, watnam = 'WAT ',

 &end

--------------------------------------------------------------------------------
   1.  RESOURCE   USE:
--------------------------------------------------------------------------------

 getting new box info from bottom of inpcrd

 NATOM  =    2974 NTYPES =       9 NBONH =    2964 MBONA  =       9
 NTHETH =      25 MTHETA =      11 NPHIH =      43 MPHIA  =      24
 NHPARM =       0 NPARM  =       0 NNB   =    4035 NRES   =     987
 NBONA  =       9 NTHETA =      11 NPHIA =      24 NUMBND =      10
 NUMANG =      16 NPTRA  =      19 NATYP =       9 NPHB   =       1
 IFBOX  =       2 NMXRS  =      10 IFCAP =       0 NEXTRA =       0
 NCOPY  =       0

     BOX TYPE: TRUNCATED OCTAHEDRON
Note: ig = -1. Setting random seed to   351155 based on wallclock time in microseconds
      and disabling the synchronization of random numbers between tasks
      to improve performance.

--------------------------------------------------------------------------------
   2.  CONTROL  DATA  FOR  THE  RUN
--------------------------------------------------------------------------------

default_name

General flags:
     imin    =       0, nmropt  =       0

Nature and format of input:
     ntx     =       1, irest   =       0, ntrx    =       1

Nature and format of output:
     ntxo    =       1, ntpr    =    1000, ntrx    =       1, ntwr    =   10000
     iwrap   =       0, ntwx    =    1000, ntwv    =       0, ntwe    =    1000
     ioutfm  =       1, ntwprt  =       0, idecomp =       0, rbornstat=      0

Potential function:
     ntf     =       2, ntb     =       2, igb     =       0, nsnb    =      25
     ipol    =       0, gbsa    =       0, iesp    =       0
     dielc   =   1.00000, cut     =   9.00000, intdiel =   1.00000

Frozen or restrained atoms:
     ibelly  =       0, ntr     =       1
     restraint_wt = 100.00000

Molecular dynamics:
     nstlim  =     10000, nscm    =         0, nrespa  =         1
     t       =   0.00000, dt      =   0.00200, vlimit  =  20.00000

Langevin dynamics temperature regulation:
     ig      =  351155
     temp0   = 298.00000, tempi   =   0.00000, gamma_ln=   3.00000

Pressure regulation:
     ntp     =       1
     pres0   =   1.00000, comp    =  44.60000, taup    =   1.00000

SHAKE:
     ntc     =       2, jfastw  =       0
     tol     =   0.00000

Ewald parameters:
     verbose =       0, ew_type =       0, nbflag  =       1, use_pme =       1
     vdwmeth =       1, eedmeth =       1, netfrc  =       1
     Box X =   35.999   Box Y =   35.999   Box Z =   35.999
     Alpha =  109.471   Beta  =  109.471   Gamma =  109.471
     NFFT1 =   36       NFFT2 =   36       NFFT3 =   36
     Cutoff=    9.000   Tol   =0.100E-04
     Ewald Coefficient =  0.30768
     Interpolation order =    4

    LOADING THE CONSTRAINED ATOMS AS GROUPS

   5.  REFERENCE ATOM COORDINATES

  defa
     Mask :1; matches     6 atoms

--------------------------------------------------------------------------------
   3.  ATOMIC COORDINATES AND VELOCITIES
--------------------------------------------------------------------------------

defa
 begin time read from input coords =     0.000 ps

 Number of triangulated 3-point waters found:      984

     Sum of charges from parm topology file =  -0.00000000
     Forcing neutrality...

--------------------------------------------------------------------------------
   4.  RESULTS
 NSTEP =        0   TIME(PS) =       0.000  TEMP(K) =     0.00  PRESS = -5506.7
 Etot   =    -12982.6805  EKtot   =         0.0000  EPtot      =    -12982.6805
 BOND   =         0.9482  ANGLE   =         3.1384  DIHED      =         8.8252
 1-4 NB =         2.1305  1-4 EEL =        44.1958  VDWAALS    =      2266.5967
 EELEC  =    -15308.6073  EHBOND  =         0.0000  RESTRAINT  =         0.0920
 EAMBER (non-restraint)  =    -12982.7725
 EKCMT  =         0.0000  VIRIAL  =      4269.7167  VOLUME     =     35911.3591
                                                    Density    =         0.8264
 Ewald error estimate:   0.1849E-03
 ------------------------------------------------------------------------------

      A V E R A G E S   O V E R   10000 S T E P S

 NSTEP =    10000   TIME(PS) =      20.000  TEMP(K) =   293.59  PRESS =  -200.2
 Etot   =     -7708.3516  EKtot   =      1738.0125  EPtot      =     -9446.3641
 BOND   =         3.2771  ANGLE   =        10.0834  DIHED      =        11.1716
 1-4 NB =         2.8349  1-4 EEL =        44.8855  VDWAALS    =      1410.0589
 EELEC  =    -10931.6687  EHBOND  =         0.0000  RESTRAINT  =         2.9931
 EAMBER (non-restraint)  =     -9449.3572
 EKCMT  =       865.0742  VIRIAL  =      1007.2306  VOLUME     =     30709.5087
                                                    Density    =         0.9677
 Ewald error estimate:   0.1829E-03
 ------------------------------------------------------------------------------

      R M S  F L U C T U A T I O N S

 NSTEP =    10000   TIME(PS) =      20.000  TEMP(K) =    26.58  PRESS =   481.3
 Etot   =       329.9045  EKtot   =       157.3359  EPtot      =       179.7954
 BOND   =         1.5357  ANGLE   =         2.4793  DIHED      =         1.2896
 1-4 NB =         0.6657  1-4 EEL =         1.8766  VDWAALS    =        84.3690
 EELEC  =       254.1825  EHBOND  =         0.0000  RESTRAINT  =         1.2691
 EAMBER (non-restraint)  =       178.5263
 EKCMT  =        76.4869  VIRIAL  =       302.6293  VOLUME     =      1194.2160
                                                    Density    =         0.0347
 Ewald error estimate:   0.1418E-03
 ------------------------------------------------------------------------------
