-------------------------------------------------------
          Amber 16 SANDER                              2016
          -------------------------------------------------------

  [-O]verwriting output

File Assignments:

 Here is the input file:

Equilibrate water in NPT
 &cntrl

  nmropt = 0,
  ntx    = 1,       irest  = 0,       ntrx   = 1,      ntxo   = 1,
  ntpr   = 1000,    ntwx   = 1000,    ntwv   = 0,      ntwe   = 1000,
  iwrap  = 0,       ioutfm = 1,

  ntf    = 2,       ntb    = 2,
  cut = 9.0,

  ibelly = 0,       ntr    = 1,
  restraintmask = ':1',
  restraint_wt = 100.0,

  imin   = 0,
  nstlim = 10000,
  nscm   = 1000,
  t      = 0.0,     dt     = 0.002,

  temp0     = 298.0,   tempi  = 0.0,
  ig        = -1,
  ntt       = 3,
  gamma_ln  = 3.0,

  ntp    = 1,       pres0  = 1.0,     comp   = 44.6,
  taup   = 1.0,

  ntc    = 2,       tol    = 0.000001, watnam = 'WAT ',

 &end

--------------------------------------------------------------------------------
   1.  RESOURCE   USE:
--------------------------------------------------------------------------------

 getting new box info from bottom of inpcrd

 NATOM  =    2968 NTYPES =       9 NBONH =    2958 MBONA  =       9
 NTHETH =      25 MTHETA =      11 NPHIH =      43 MPHIA  =      24
 NHPARM =       0 NPARM  =       0 NNB   =    4027 NRES   =     985
 NBONA  =       9 NTHETA =      11 NPHIA =      24 NUMBND =      10
 NUMANG =      16 NPTRA  =      19 NATYP =       9 NPHB   =       1
 IFBOX  =       2 NMXRS  =      10 IFCAP =       0 NEXTRA =       0
 NCOPY  =       0

     BOX TYPE: TRUNCATED OCTAHEDRON
Note: ig = -1. Setting random seed to   617768 based on wallclock time in microseconds
      and disabling the synchronization of random numbers between tasks
      to improve performance.

--------------------------------------------------------------------------------
   2.  CONTROL  DATA  FOR  THE  RUN
--------------------------------------------------------------------------------

default_name

General flags:
     imin    =       0, nmropt  =       0

Nature and format of input:
     ntx     =       1, irest   =       0, ntrx    =       1

Nature and format of output:
     ntxo    =       1, ntpr    =    1000, ntrx    =       1, ntwr    =   10000
     iwrap   =       0, ntwx    =    1000, ntwv    =       0, ntwe    =    1000
     ioutfm  =       1, ntwprt  =       0, idecomp =       0, rbornstat=      0

Potential function:
     ntf     =       2, ntb     =       2, igb     =       0, nsnb    =      25
     ipol    =       0, gbsa    =       0, iesp    =       0
     dielc   =   1.00000, cut     =   9.00000, intdiel =   1.00000

Frozen or restrained atoms:
     ibelly  =       0, ntr     =       1
     restraint_wt = 100.00000

Molecular dynamics:
     nstlim  =     10000, nscm    =         0, nrespa  =         1
     t       =   0.00000, dt      =   0.00200, vlimit  =  20.00000

Langevin dynamics temperature regulation:
     ig      =  617768
     temp0   = 298.00000, tempi   =   0.00000, gamma_ln=   3.00000

Pressure regulation:
     ntp     =       1
     pres0   =   1.00000, comp    =  44.60000, taup    =   1.00000

SHAKE:
     ntc     =       2, jfastw  =       0
     tol     =   0.00000

Ewald parameters:
     verbose =       0, ew_type =       0, nbflag  =       1, use_pme =       1
     vdwmeth =       1, eedmeth =       1, netfrc  =       1
     Box X =   35.974   Box Y =   35.974   Box Z =   35.974
     Alpha =  109.471   Beta  =  109.471   Gamma =  109.471
     NFFT1 =   36       NFFT2 =   36       NFFT3 =   36
     Cutoff=    9.000   Tol   =0.100E-04
     Ewald Coefficient =  0.30768
     Interpolation order =    4

    LOADING THE CONSTRAINED ATOMS AS GROUPS

   5.  REFERENCE ATOM COORDINATES

  defa
     Mask :1; matches     6 atoms

--------------------------------------------------------------------------------
   3.  ATOMIC COORDINATES AND VELOCITIES
--------------------------------------------------------------------------------

defa
 begin time read from input coords =     0.000 ps

 Number of triangulated 3-point waters found:      982

     Sum of charges from parm topology file =  -0.00000000
     Forcing neutrality...

--------------------------------------------------------------------------------
   4.  RESULTS
 NSTEP =        0   TIME(PS) =       0.000  TEMP(K) =     0.00  PRESS = -5494.3
 Etot   =    -12952.6329  EKtot   =         0.0000  EPtot      =    -12952.6329
 BOND   =         0.5674  ANGLE   =         0.9983  DIHED      =         9.9257
 1-4 NB =         2.7918  1-4 EEL =        46.1789  VDWAALS    =      2258.8042
 EELEC  =    -15272.5359  EHBOND  =         0.0000  RESTRAINT  =         0.6367
 EAMBER (non-restraint)  =    -12953.2696
 EKCMT  =         0.0000  VIRIAL  =      4251.5585  VOLUME     =     35839.2487
                                                    Density    =         0.8264
 Ewald error estimate:   0.7634E-04
 ------------------------------------------------------------------------------

      A V E R A G E S   O V E R   10000 S T E P S

 NSTEP =    10000   TIME(PS) =      20.000  TEMP(K) =   294.49  PRESS =  -194.7
 Etot   =     -7672.8420  EKtot   =      1739.7990  EPtot      =     -9412.6410
 BOND   =         3.0478  ANGLE   =         8.3316  DIHED      =        11.1368
 1-4 NB =         3.3582  1-4 EEL =        45.9478  VDWAALS    =      1402.4794
 EELEC  =    -10890.0821  EHBOND  =         0.0000  RESTRAINT  =         3.1394
 EAMBER (non-restraint)  =     -9415.7804
 EKCMT  =       865.2326  VIRIAL  =      1003.5605  VOLUME     =     30706.5374
                                                    Density    =         0.9660
 Ewald error estimate:   0.1933E-03
 ------------------------------------------------------------------------------

      R M S  F L U C T U A T I O N S

 NSTEP =    10000   TIME(PS) =      20.000  TEMP(K) =    26.31  PRESS =   482.6
 Etot   =       330.9920  EKtot   =       155.4269  EPtot      =       183.8445
 BOND   =         1.4702  ANGLE   =         2.3371  DIHED      =         1.2867
 1-4 NB =         0.7837  1-4 EEL =         2.1937  VDWAALS    =        86.2278
 EELEC  =       259.1658  EHBOND  =         0.0000  RESTRAINT  =         1.2489
 EAMBER (non-restraint)  =       182.5956
 EKCMT  =        75.6703  VIRIAL  =       303.9432  VOLUME     =      1231.7635
                                                    Density    =         0.0357
 Ewald error estimate:   0.1436E-03
 ------------------------------------------------------------------------------
