-------------------------------------------------------
          Amber 16 SANDER                              2016
          -------------------------------------------------------

  [-O]verwriting output

File Assignments:

 Here is the input file:

Equilibrate water in NPT
 &cntrl

  nmropt = 0,
  ntx    = 1,       irest  = 0,       ntrx   = 1,      ntxo   = 1,
  ntpr   = 1000,    ntwx   = 1000,    ntwv   = 0,      ntwe   = 1000,
  iwrap  = 0,       ioutfm = 1,

  ntf    = 2,       ntb    = 2,
  cut = 9.0,

  ibelly = 0,       ntr    = 1,
  restraintmask = ':1',
  restraint_wt = 100.0,

  imin   = 0,
  nstlim = 10000,
  nscm   = 1000,
  t      = 0.0,     dt     = 0.002,

  temp0     = 298.0,   tempi  = 0.0,
  ig        = -1,
  ntt       = 3,
  gamma_ln  = 3.0,

  ntp    = 1,       pres0  = 1.0,     comp   = 44.6,
  taup   = 1.0,

  ntc    = 2,       tol    = 0.000001, watnam = 'WAT ',

 &end

--------------------------------------------------------------------------------
   1.  RESOURCE   USE:
--------------------------------------------------------------------------------

 getting new box info from bottom of inpcrd

 NATOM  =    3028 NTYPES =       9 NBONH =    3018 MBONA  =       9
 NTHETH =      25 MTHETA =      11 NPHIH =      43 MPHIA  =      24
 NHPARM =       0 NPARM  =       0 NNB   =    4107 NRES   =    1005
 NBONA  =       9 NTHETA =      11 NPHIA =      24 NUMBND =      10
 NUMANG =      16 NPTRA  =      19 NATYP =       9 NPHB   =       1
 IFBOX  =       2 NMXRS  =      10 IFCAP =       0 NEXTRA =       0
 NCOPY  =       0

     BOX TYPE: TRUNCATED OCTAHEDRON
Note: ig = -1. Setting random seed to   726141 based on wallclock time in microseconds
      and disabling the synchronization of random numbers between tasks
      to improve performance.

--------------------------------------------------------------------------------
   2.  CONTROL  DATA  FOR  THE  RUN
--------------------------------------------------------------------------------

default_name

General flags:
     imin    =       0, nmropt  =       0

Nature and format of input:
     ntx     =       1, irest   =       0, ntrx    =       1

Nature and format of output:
     ntxo    =       1, ntpr    =    1000, ntrx    =       1, ntwr    =   10000
     iwrap   =       0, ntwx    =    1000, ntwv    =       0, ntwe    =    1000
     ioutfm  =       1, ntwprt  =       0, idecomp =       0, rbornstat=      0

Potential function:
     ntf     =       2, ntb     =       2, igb     =       0, nsnb    =      25
     ipol    =       0, gbsa    =       0, iesp    =       0
     dielc   =   1.00000, cut     =   9.00000, intdiel =   1.00000

Frozen or restrained atoms:
     ibelly  =       0, ntr     =       1
     restraint_wt = 100.00000

Molecular dynamics:
     nstlim  =     10000, nscm    =         0, nrespa  =         1
     t       =   0.00000, dt      =   0.00200, vlimit  =  20.00000

Langevin dynamics temperature regulation:
     ig      =  726141
     temp0   = 298.00000, tempi   =   0.00000, gamma_ln=   3.00000

Pressure regulation:
     ntp     =       1
     pres0   =   1.00000, comp    =  44.60000, taup    =   1.00000

SHAKE:
     ntc     =       2, jfastw  =       0
     tol     =   0.00000

Ewald parameters:
     verbose =       0, ew_type =       0, nbflag  =       1, use_pme =       1
     vdwmeth =       1, eedmeth =       1, netfrc  =       1
     Box X =   36.202   Box Y =   36.202   Box Z =   36.202
     Alpha =  109.471   Beta  =  109.471   Gamma =  109.471
     NFFT1 =   36       NFFT2 =   36       NFFT3 =   36
     Cutoff=    9.000   Tol   =0.100E-04
     Ewald Coefficient =  0.30768
     Interpolation order =    4

    LOADING THE CONSTRAINED ATOMS AS GROUPS

   5.  REFERENCE ATOM COORDINATES

  defa
     Mask :1; matches     6 atoms

--------------------------------------------------------------------------------
   3.  ATOMIC COORDINATES AND VELOCITIES
--------------------------------------------------------------------------------

defa
 begin time read from input coords =     0.000 ps

 Number of triangulated 3-point waters found:     1002

     Sum of charges from parm topology file =  -0.00000000
     Forcing neutrality...

--------------------------------------------------------------------------------
   4.  RESULTS
 NSTEP =        0   TIME(PS) =       0.000  TEMP(K) =     0.00  PRESS = -5220.4
 Etot   =    -13194.0134  EKtot   =         0.0000  EPtot      =    -13194.0134
 BOND   =         0.8231  ANGLE   =         1.3473  DIHED      =         8.8954
 1-4 NB =         3.2623  1-4 EEL =        47.1615  VDWAALS    =      2339.3281
 EELEC  =    -15594.9659  EHBOND  =         0.0000  RESTRAINT  =         0.1347
 EAMBER (non-restraint)  =    -13194.1481
 EKCMT  =         0.0000  VIRIAL  =      4116.9267  VOLUME     =     36525.1882
                                                    Density    =         0.8273
 Ewald error estimate:   0.6005E-04
 ------------------------------------------------------------------------------

      A V E R A G E S   O V E R   10000 S T E P S

 NSTEP =    10000   TIME(PS) =      20.000  TEMP(K) =   292.17  PRESS =  -192.9
 Etot   =     -7871.0447  EKtot   =      1760.9663  EPtot      =     -9632.0110
 BOND   =         3.0277  ANGLE   =         7.8352  DIHED      =        10.7987
 1-4 NB =         3.2077  1-4 EEL =        46.3442  VDWAALS    =      1443.2016
 EELEC  =    -11149.3931  EHBOND  =         0.0000  RESTRAINT  =         2.9670
 EAMBER (non-restraint)  =     -9634.9780
 EKCMT  =       877.0744  VIRIAL  =      1016.8507  VOLUME     =     31352.5873
                                                    Density    =         0.9653
 Ewald error estimate:   0.1819E-03
 ------------------------------------------------------------------------------

      R M S  F L U C T U A T I O N S

 NSTEP =    10000   TIME(PS) =      20.000  TEMP(K) =    26.23  PRESS =   448.3
 Etot   =       333.2724  EKtot   =       158.0966  EPtot      =       182.9965
 BOND   =         1.4185  ANGLE   =         2.2576  DIHED      =         1.2001
 1-4 NB =         0.7542  1-4 EEL =         2.1701  VDWAALS    =        91.7986
 EELEC  =       263.9461  EHBOND  =         0.0000  RESTRAINT  =         1.2652
 EAMBER (non-restraint)  =       181.7312
 EKCMT  =        76.3156  VIRIAL  =       290.2086  VOLUME     =      1317.9934
                                                    Density    =         0.0375
 Ewald error estimate:   0.1377E-03
 ------------------------------------------------------------------------------
