-------------------------------------------------------
          Amber 16 SANDER                              2016
          -------------------------------------------------------

  [-O]verwriting output

File Assignments:

 Here is the input file:

Equilibrate water in NPT
 &cntrl

  nmropt = 0,
  ntx    = 1,       irest  = 0,       ntrx   = 1,      ntxo   = 1,
  ntpr   = 1000,    ntwx   = 1000,    ntwv   = 0,      ntwe   = 1000,
  iwrap  = 0,       ioutfm = 1,

  ntf    = 2,       ntb    = 2,
  cut = 9.0,

  ibelly = 0,       ntr    = 1,
  restraintmask = ':1',
  restraint_wt = 100.0,

  imin   = 0,
  nstlim = 10000,
  nscm   = 1000,
  t      = 0.0,     dt     = 0.002,

  temp0     = 298.0,   tempi  = 0.0,
  ig        = -1,
  ntt       = 3,
  gamma_ln  = 3.0,

  ntp    = 1,       pres0  = 1.0,     comp   = 44.6,
  taup   = 1.0,

  ntc    = 2,       tol    = 0.000001, watnam = 'WAT ',

 &end

--------------------------------------------------------------------------------
   1.  RESOURCE   USE:
--------------------------------------------------------------------------------

 getting new box info from bottom of inpcrd

 NATOM  =    2821 NTYPES =       9 NBONH =    2811 MBONA  =       9
 NTHETH =      25 MTHETA =      11 NPHIH =      43 MPHIA  =      24
 NHPARM =       0 NPARM  =       0 NNB   =    3831 NRES   =     936
 NBONA  =       9 NTHETA =      11 NPHIA =      24 NUMBND =      10
 NUMANG =      16 NPTRA  =      19 NATYP =       9 NPHB   =       1
 IFBOX  =       2 NMXRS  =      10 IFCAP =       0 NEXTRA =       0
 NCOPY  =       0

     BOX TYPE: TRUNCATED OCTAHEDRON
Note: ig = -1. Setting random seed to   991151 based on wallclock time in microseconds
      and disabling the synchronization of random numbers between tasks
      to improve performance.

--------------------------------------------------------------------------------
   2.  CONTROL  DATA  FOR  THE  RUN
--------------------------------------------------------------------------------

default_name

General flags:
     imin    =       0, nmropt  =       0

Nature and format of input:
     ntx     =       1, irest   =       0, ntrx    =       1

Nature and format of output:
     ntxo    =       1, ntpr    =    1000, ntrx    =       1, ntwr    =   10000
     iwrap   =       0, ntwx    =    1000, ntwv    =       0, ntwe    =    1000
     ioutfm  =       1, ntwprt  =       0, idecomp =       0, rbornstat=      0

Potential function:
     ntf     =       2, ntb     =       2, igb     =       0, nsnb    =      25
     ipol    =       0, gbsa    =       0, iesp    =       0
     dielc   =   1.00000, cut     =   9.00000, intdiel =   1.00000

Frozen or restrained atoms:
     ibelly  =       0, ntr     =       1
     restraint_wt = 100.00000

Molecular dynamics:
     nstlim  =     10000, nscm    =         0, nrespa  =         1
     t       =   0.00000, dt      =   0.00200, vlimit  =  20.00000

Langevin dynamics temperature regulation:
     ig      =  991151
     temp0   = 298.00000, tempi   =   0.00000, gamma_ln=   3.00000

Pressure regulation:
     ntp     =       1
     pres0   =   1.00000, comp    =  44.60000, taup    =   1.00000

SHAKE:
     ntc     =       2, jfastw  =       0
     tol     =   0.00000

Ewald parameters:
     verbose =       0, ew_type =       0, nbflag  =       1, use_pme =       1
     vdwmeth =       1, eedmeth =       1, netfrc  =       1
     Box X =   35.365   Box Y =   35.365   Box Z =   35.365
     Alpha =  109.471   Beta  =  109.471   Gamma =  109.471
     NFFT1 =   36       NFFT2 =   36       NFFT3 =   36
     Cutoff=    9.000   Tol   =0.100E-04
     Ewald Coefficient =  0.30768
     Interpolation order =    4

    LOADING THE CONSTRAINED ATOMS AS GROUPS

   5.  REFERENCE ATOM COORDINATES

  defa
     Mask :1; matches     6 atoms

--------------------------------------------------------------------------------
   3.  ATOMIC COORDINATES AND VELOCITIES
--------------------------------------------------------------------------------

defa
 begin time read from input coords =     0.000 ps

 Number of triangulated 3-point waters found:      933

     Sum of charges from parm topology file =  -0.00000000
     Forcing neutrality...

--------------------------------------------------------------------------------
   4.  RESULTS
 NSTEP =        0   TIME(PS) =       0.000  TEMP(K) =     0.00  PRESS = -5207.1
 Etot   =    -12311.0153  EKtot   =         0.0000  EPtot      =    -12311.0153
 BOND   =         0.5266  ANGLE   =         1.7514  DIHED      =        11.6598
 1-4 NB =         2.9460  1-4 EEL =        47.2815  VDWAALS    =      2195.4348
 EELEC  =    -14571.0423  EHBOND  =         0.0000  RESTRAINT  =         0.4268
 EAMBER (non-restraint)  =    -12311.4421
 EKCMT  =         0.0000  VIRIAL  =      3827.9001  VOLUME     =     34047.4527
                                                    Density    =         0.8268
 Ewald error estimate:   0.8883E-05
 ------------------------------------------------------------------------------

      A V E R A G E S   O V E R   10000 S T E P S

 NSTEP =    10000   TIME(PS) =      20.000  TEMP(K) =   293.52  PRESS =  -195.6
 Etot   =     -7308.8006  EKtot   =      1648.3663  EPtot      =     -8957.1669
 BOND   =         3.1037  ANGLE   =         8.0999  DIHED      =        11.4293
 1-4 NB =         3.0221  1-4 EEL =        46.4311  VDWAALS    =      1340.9350
 EELEC  =    -10373.3709  EHBOND  =         0.0000  RESTRAINT  =         3.1828
 EAMBER (non-restraint)  =     -8960.3498
 EKCMT  =       821.0071  VIRIAL  =       952.9677  VOLUME     =     29258.6378
                                                    Density    =         0.9637
 Ewald error estimate:   0.1921E-03
 ------------------------------------------------------------------------------

      R M S  F L U C T U A T I O N S

 NSTEP =    10000   TIME(PS) =      20.000  TEMP(K) =    26.38  PRESS =   456.9
 Etot   =       313.5040  EKtot   =       148.1596  EPtot      =       173.0707
 BOND   =         1.4492  ANGLE   =         2.2167  DIHED      =         1.1739
 1-4 NB =         0.7169  1-4 EEL =         2.0494  VDWAALS    =        85.9143
 EELEC  =       247.6999  EHBOND  =         0.0000  RESTRAINT  =         1.3443
 EAMBER (non-restraint)  =       171.7264
 EKCMT  =        71.9333  VIRIAL  =       274.3962  VOLUME     =      1228.6364
                                                    Density    =         0.0376
 Ewald error estimate:   0.1446E-03
 ------------------------------------------------------------------------------
