-------------------------------------------------------
          Amber 16 SANDER                              2016
          -------------------------------------------------------

  [-O]verwriting output

File Assignments:

 Here is the input file:

Equilibrate water in NPT
 &cntrl

  nmropt = 0,
  ntx    = 1,       irest  = 0,       ntrx   = 1,      ntxo   = 1,
  ntpr   = 1000,    ntwx   = 1000,    ntwv   = 0,      ntwe   = 1000,
  iwrap  = 0,       ioutfm = 1,

  ntf    = 2,       ntb    = 2,
  cut = 9.0,

  ibelly = 0,       ntr    = 1,
  restraintmask = ':1',
  restraint_wt = 100.0,

  imin   = 0,
  nstlim = 10000,
  nscm   = 1000,
  t      = 0.0,     dt     = 0.002,

  temp0     = 298.0,   tempi  = 0.0,
  ig        = -1,
  ntt       = 3,
  gamma_ln  = 3.0,

  ntp    = 1,       pres0  = 1.0,     comp   = 44.6,
  taup   = 1.0,

  ntc    = 2,       tol    = 0.000001, watnam = 'WAT ',

 &end

--------------------------------------------------------------------------------
   1.  RESOURCE   USE:
--------------------------------------------------------------------------------

 getting new box info from bottom of inpcrd

 NATOM  =    3016 NTYPES =       9 NBONH =    3006 MBONA  =       9
 NTHETH =      25 MTHETA =      11 NPHIH =      43 MPHIA  =      24
 NHPARM =       0 NPARM  =       0 NNB   =    4091 NRES   =    1001
 NBONA  =       9 NTHETA =      11 NPHIA =      24 NUMBND =      10
 NUMANG =      16 NPTRA  =      19 NATYP =       9 NPHB   =       1
 IFBOX  =       2 NMXRS  =      10 IFCAP =       0 NEXTRA =       0
 NCOPY  =       0

     BOX TYPE: TRUNCATED OCTAHEDRON
Note: ig = -1. Setting random seed to   156246 based on wallclock time in microseconds
      and disabling the synchronization of random numbers between tasks
      to improve performance.

--------------------------------------------------------------------------------
   2.  CONTROL  DATA  FOR  THE  RUN
--------------------------------------------------------------------------------

default_name

General flags:
     imin    =       0, nmropt  =       0

Nature and format of input:
     ntx     =       1, irest   =       0, ntrx    =       1

Nature and format of output:
     ntxo    =       1, ntpr    =    1000, ntrx    =       1, ntwr    =   10000
     iwrap   =       0, ntwx    =    1000, ntwv    =       0, ntwe    =    1000
     ioutfm  =       1, ntwprt  =       0, idecomp =       0, rbornstat=      0

Potential function:
     ntf     =       2, ntb     =       2, igb     =       0, nsnb    =      25
     ipol    =       0, gbsa    =       0, iesp    =       0
     dielc   =   1.00000, cut     =   9.00000, intdiel =   1.00000

Frozen or restrained atoms:
     ibelly  =       0, ntr     =       1
     restraint_wt = 100.00000

Molecular dynamics:
     nstlim  =     10000, nscm    =         0, nrespa  =         1
     t       =   0.00000, dt      =   0.00200, vlimit  =  20.00000

Langevin dynamics temperature regulation:
     ig      =  156246
     temp0   = 298.00000, tempi   =   0.00000, gamma_ln=   3.00000

Pressure regulation:
     ntp     =       1
     pres0   =   1.00000, comp    =  44.60000, taup    =   1.00000

SHAKE:
     ntc     =       2, jfastw  =       0
     tol     =   0.00000

Ewald parameters:
     verbose =       0, ew_type =       0, nbflag  =       1, use_pme =       1
     vdwmeth =       1, eedmeth =       1, netfrc  =       1
     Box X =   36.156   Box Y =   36.156   Box Z =   36.156
     Alpha =  109.471   Beta  =  109.471   Gamma =  109.471
     NFFT1 =   36       NFFT2 =   36       NFFT3 =   36
     Cutoff=    9.000   Tol   =0.100E-04
     Ewald Coefficient =  0.30768
     Interpolation order =    4

    LOADING THE CONSTRAINED ATOMS AS GROUPS

   5.  REFERENCE ATOM COORDINATES

  defa
     Mask :1; matches     6 atoms

--------------------------------------------------------------------------------
   3.  ATOMIC COORDINATES AND VELOCITIES
--------------------------------------------------------------------------------

defa
 begin time read from input coords =     0.000 ps

 Number of triangulated 3-point waters found:      998

     Sum of charges from parm topology file =  -0.00000000
     Forcing neutrality...

--------------------------------------------------------------------------------
   4.  RESULTS
 NSTEP =        0   TIME(PS) =       0.000  TEMP(K) =     0.00  PRESS = -5146.6
 Etot   =    -13130.7858  EKtot   =         0.0000  EPtot      =    -13130.7858
 BOND   =         0.7762  ANGLE   =         1.2533  DIHED      =         9.1905
 1-4 NB =         3.4560  1-4 EEL =        47.5777  VDWAALS    =      2335.7306
 EELEC  =    -15529.2033  EHBOND  =         0.0000  RESTRAINT  =         0.4332
 EAMBER (non-restraint)  =    -13131.2190
 EKCMT  =         0.0000  VIRIAL  =      4043.1731  VOLUME     =     36384.8819
                                                    Density    =         0.8272
 Ewald error estimate:   0.9570E-04
 ------------------------------------------------------------------------------

      A V E R A G E S   O V E R   10000 S T E P S

 NSTEP =    10000   TIME(PS) =      20.000  TEMP(K) =   292.66  PRESS =  -193.0
 Etot   =     -7830.6300  EKtot   =      1756.9423  EPtot      =     -9587.5723
 BOND   =         3.2020  ANGLE   =         8.3403  DIHED      =        11.0238
 1-4 NB =         3.2341  1-4 EEL =        46.3800  VDWAALS    =      1438.2733
 EELEC  =    -11101.2067  EHBOND  =         0.0000  RESTRAINT  =         3.1811
 EAMBER (non-restraint)  =     -9590.7533
 EKCMT  =       874.2784  VIRIAL  =      1013.5642  VOLUME     =     31250.8768
                                                    Density    =         0.9644
 Ewald error estimate:   0.1954E-03
 ------------------------------------------------------------------------------

      R M S  F L U C T U A T I O N S

 NSTEP =    10000   TIME(PS) =      20.000  TEMP(K) =    25.98  PRESS =   455.6
 Etot   =       328.3722  EKtot   =       155.9437  EPtot      =       179.7803
 BOND   =         1.5095  ANGLE   =         2.4225  DIHED      =         1.1497
 1-4 NB =         0.7362  1-4 EEL =         2.0392  VDWAALS    =        86.5196
 EELEC  =       256.3752  EHBOND  =         0.0000  RESTRAINT  =         1.4006
 EAMBER (non-restraint)  =       178.3797
 EKCMT  =        75.9108  VIRIAL  =       291.3996  VOLUME     =      1227.2926
                                                    Density    =         0.0350
 Ewald error estimate:   0.1468E-03
 ------------------------------------------------------------------------------
