-------------------------------------------------------
          Amber 16 SANDER                              2016
          -------------------------------------------------------

  [-O]verwriting output

File Assignments:

 Here is the input file:

Equilibrate water in NPT
 &cntrl

  nmropt = 0,
  ntx    = 1,       irest  = 0,       ntrx   = 1,      ntxo   = 1,
  ntpr   = 1000,    ntwx   = 1000,    ntwv   = 0,      ntwe   = 1000,
  iwrap  = 0,       ioutfm = 1,

  ntf    = 2,       ntb    = 2,
  cut = 9.0,

  ibelly = 0,       ntr    = 1,
  restraintmask = ':1',
  restraint_wt = 100.0,

  imin   = 0,
  nstlim = 10000,
  nscm   = 1000,
  t      = 0.0,     dt     = 0.002,

  temp0     = 298.0,   tempi  = 0.0,
  ig        = -1,
  ntt       = 3,
  gamma_ln  = 3.0,

  ntp    = 1,       pres0  = 1.0,     comp   = 44.6,
  taup   = 1.0,

  ntc    = 2,       tol    = 0.000001, watnam = 'WAT ',

 &end

--------------------------------------------------------------------------------
   1.  RESOURCE   USE:
--------------------------------------------------------------------------------

 getting new box info from bottom of inpcrd

 NATOM  =    2794 NTYPES =       9 NBONH =    2784 MBONA  =       9
 NTHETH =      25 MTHETA =      11 NPHIH =      43 MPHIA  =      24
 NHPARM =       0 NPARM  =       0 NNB   =    3795 NRES   =     927
 NBONA  =       9 NTHETA =      11 NPHIA =      24 NUMBND =      10
 NUMANG =      16 NPTRA  =      19 NATYP =       9 NPHB   =       1
 IFBOX  =       2 NMXRS  =      10 IFCAP =       0 NEXTRA =       0
 NCOPY  =       0

     BOX TYPE: TRUNCATED OCTAHEDRON
Note: ig = -1. Setting random seed to   940023 based on wallclock time in microseconds
      and disabling the synchronization of random numbers between tasks
      to improve performance.

--------------------------------------------------------------------------------
   2.  CONTROL  DATA  FOR  THE  RUN
--------------------------------------------------------------------------------

default_name

General flags:
     imin    =       0, nmropt  =       0

Nature and format of input:
     ntx     =       1, irest   =       0, ntrx    =       1

Nature and format of output:
     ntxo    =       1, ntpr    =    1000, ntrx    =       1, ntwr    =   10000
     iwrap   =       0, ntwx    =    1000, ntwv    =       0, ntwe    =    1000
     ioutfm  =       1, ntwprt  =       0, idecomp =       0, rbornstat=      0

Potential function:
     ntf     =       2, ntb     =       2, igb     =       0, nsnb    =      25
     ipol    =       0, gbsa    =       0, iesp    =       0
     dielc   =   1.00000, cut     =   9.00000, intdiel =   1.00000

Frozen or restrained atoms:
     ibelly  =       0, ntr     =       1
     restraint_wt = 100.00000

Molecular dynamics:
     nstlim  =     10000, nscm    =         0, nrespa  =         1
     t       =   0.00000, dt      =   0.00200, vlimit  =  20.00000

Langevin dynamics temperature regulation:
     ig      =  940023
     temp0   = 298.00000, tempi   =   0.00000, gamma_ln=   3.00000

Pressure regulation:
     ntp     =       1
     pres0   =   1.00000, comp    =  44.60000, taup    =   1.00000

SHAKE:
     ntc     =       2, jfastw  =       0
     tol     =   0.00000

Ewald parameters:
     verbose =       0, ew_type =       0, nbflag  =       1, use_pme =       1
     vdwmeth =       1, eedmeth =       1, netfrc  =       1
     Box X =   35.211   Box Y =   35.211   Box Z =   35.211
     Alpha =  109.471   Beta  =  109.471   Gamma =  109.471
     NFFT1 =   36       NFFT2 =   36       NFFT3 =   36
     Cutoff=    9.000   Tol   =0.100E-04
     Ewald Coefficient =  0.30768
     Interpolation order =    4

    LOADING THE CONSTRAINED ATOMS AS GROUPS

   5.  REFERENCE ATOM COORDINATES

  defa
     Mask :1; matches     6 atoms

--------------------------------------------------------------------------------
   3.  ATOMIC COORDINATES AND VELOCITIES
--------------------------------------------------------------------------------

defa
 begin time read from input coords =     0.000 ps

 Number of triangulated 3-point waters found:      924

     Sum of charges from parm topology file =  -0.00000000
     Forcing neutrality...

--------------------------------------------------------------------------------
   4.  RESULTS
 NSTEP =        0   TIME(PS) =       0.000  TEMP(K) =     0.00  PRESS = -5120.5
 Etot   =    -12237.9047  EKtot   =         0.0000  EPtot      =    -12237.9047
 BOND   =         0.5888  ANGLE   =         1.4384  DIHED      =         9.8545
 1-4 NB =         2.9540  1-4 EEL =        45.1848  VDWAALS    =      2199.4475
 EELEC  =    -14497.5527  EHBOND  =         0.0000  RESTRAINT  =         0.1801
 EAMBER (non-restraint)  =    -12238.0849
 EKCMT  =         0.0000  VIRIAL  =      3715.5086  VOLUME     =     33606.8912
                                                    Density    =         0.8297
 Ewald error estimate:   0.3642E-03
 ------------------------------------------------------------------------------

      A V E R A G E S   O V E R   10000 S T E P S

 NSTEP =    10000   TIME(PS) =      20.000  TEMP(K) =   290.88  PRESS =  -186.6
 Etot   =     -7287.2920  EKtot   =      1617.9308  EPtot      =     -8905.2227
 BOND   =         3.0721  ANGLE   =         7.7616  DIHED      =        11.3857
 1-4 NB =         3.2952  1-4 EEL =        47.4431  VDWAALS    =      1338.9398
 EELEC  =    -10320.0122  EHBOND  =         0.0000  RESTRAINT  =         2.8920
 EAMBER (non-restraint)  =     -8908.1148
 EKCMT  =       806.2541  VIRIAL  =       930.9623  VOLUME     =     28919.6344
                                                    Density    =         0.9656
 Ewald error estimate:   0.1918E-03
 ------------------------------------------------------------------------------

      R M S  F L U C T U A T I O N S

 NSTEP =    10000   TIME(PS) =      20.000  TEMP(K) =    26.00  PRESS =   467.3
 Etot   =       307.4504  EKtot   =       144.6166  EPtot      =       172.0866
 BOND   =         1.4418  ANGLE   =         2.1639  DIHED      =         1.1164
 1-4 NB =         0.7490  1-4 EEL =         2.0736  VDWAALS    =        87.8301
 EELEC  =       249.9967  EHBOND  =         0.0000  RESTRAINT  =         1.2009
 EAMBER (non-restraint)  =       170.8857
 EKCMT  =        71.5691  VIRIAL  =       280.6960  VOLUME     =      1185.4181
                                                    Density    =         0.0365
 Ewald error estimate:   0.1458E-03
 ------------------------------------------------------------------------------
