-------------------------------------------------------
          Amber 16 SANDER                              2016
          -------------------------------------------------------

  [-O]verwriting output

File Assignments:

 Here is the input file:

Equilibrate water in NPT
 &cntrl

  nmropt = 0,
  ntx    = 1,       irest  = 0,       ntrx   = 1,      ntxo   = 1,
  ntpr   = 1000,    ntwx   = 1000,    ntwv   = 0,      ntwe   = 1000,
  iwrap  = 0,       ioutfm = 1,

  ntf    = 2,       ntb    = 2,
  cut = 9.0,

  ibelly = 0,       ntr    = 1,
  restraintmask = ':1',
  restraint_wt = 100.0,

  imin   = 0,
  nstlim = 10000,
  nscm   = 1000,
  t      = 0.0,     dt     = 0.002,

  temp0     = 298.0,   tempi  = 0.0,
  ig        = -1,
  ntt       = 3,
  gamma_ln  = 3.0,

  ntp    = 1,       pres0  = 1.0,     comp   = 44.6,
  taup   = 1.0,

  ntc    = 2,       tol    = 0.000001, watnam = 'WAT ',

 &end

--------------------------------------------------------------------------------
   1.  RESOURCE   USE:
--------------------------------------------------------------------------------

 getting new box info from bottom of inpcrd

 NATOM  =    3109 NTYPES =       9 NBONH =    3099 MBONA  =       9
 NTHETH =      25 MTHETA =      11 NPHIH =      43 MPHIA  =      24
 NHPARM =       0 NPARM  =       0 NNB   =    4215 NRES   =    1032
 NBONA  =       9 NTHETA =      11 NPHIA =      24 NUMBND =      10
 NUMANG =      16 NPTRA  =      19 NATYP =       9 NPHB   =       1
 IFBOX  =       2 NMXRS  =      10 IFCAP =       0 NEXTRA =       0
 NCOPY  =       0

     BOX TYPE: TRUNCATED OCTAHEDRON
Note: ig = -1. Setting random seed to   283365 based on wallclock time in microseconds
      and disabling the synchronization of random numbers between tasks
      to improve performance.

--------------------------------------------------------------------------------
   2.  CONTROL  DATA  FOR  THE  RUN
--------------------------------------------------------------------------------

default_name

General flags:
     imin    =       0, nmropt  =       0

Nature and format of input:
     ntx     =       1, irest   =       0, ntrx    =       1

Nature and format of output:
     ntxo    =       1, ntpr    =    1000, ntrx    =       1, ntwr    =   10000
     iwrap   =       0, ntwx    =    1000, ntwv    =       0, ntwe    =    1000
     ioutfm  =       1, ntwprt  =       0, idecomp =       0, rbornstat=      0

Potential function:
     ntf     =       2, ntb     =       2, igb     =       0, nsnb    =      25
     ipol    =       0, gbsa    =       0, iesp    =       0
     dielc   =   1.00000, cut     =   9.00000, intdiel =   1.00000

Frozen or restrained atoms:
     ibelly  =       0, ntr     =       1
     restraint_wt = 100.00000

Molecular dynamics:
     nstlim  =     10000, nscm    =         0, nrespa  =         1
     t       =   0.00000, dt      =   0.00200, vlimit  =  20.00000

Langevin dynamics temperature regulation:
     ig      =  283365
     temp0   = 298.00000, tempi   =   0.00000, gamma_ln=   3.00000

Pressure regulation:
     ntp     =       1
     pres0   =   1.00000, comp    =  44.60000, taup    =   1.00000

SHAKE:
     ntc     =       2, jfastw  =       0
     tol     =   0.00000

Ewald parameters:
     verbose =       0, ew_type =       0, nbflag  =       1, use_pme =       1
     vdwmeth =       1, eedmeth =       1, netfrc  =       1
     Box X =   36.419   Box Y =   36.419   Box Z =   36.419
     Alpha =  109.471   Beta  =  109.471   Gamma =  109.471
     NFFT1 =   36       NFFT2 =   36       NFFT3 =   36
     Cutoff=    9.000   Tol   =0.100E-04
     Ewald Coefficient =  0.30768
     Interpolation order =    4

    LOADING THE CONSTRAINED ATOMS AS GROUPS

   5.  REFERENCE ATOM COORDINATES

  defa
     Mask :1; matches     6 atoms

--------------------------------------------------------------------------------
   3.  ATOMIC COORDINATES AND VELOCITIES
--------------------------------------------------------------------------------

defa
 begin time read from input coords =     0.000 ps

 Number of triangulated 3-point waters found:     1029

     Sum of charges from parm topology file =  -0.00000000
     Forcing neutrality...

--------------------------------------------------------------------------------
   4.  RESULTS
 NSTEP =        0   TIME(PS) =       0.000  TEMP(K) =     0.00  PRESS = -5348.2
 Etot   =    -13577.3486  EKtot   =         0.0000  EPtot      =    -13577.3486
 BOND   =         0.5973  ANGLE   =         2.7003  DIHED      =        10.9685
 1-4 NB =         3.4003  1-4 EEL =        47.2908  VDWAALS    =      2394.6263
 EELEC  =    -16037.8623  EHBOND  =         0.0000  RESTRAINT  =         0.9302
 EAMBER (non-restraint)  =    -13578.2788
 EKCMT  =         0.0000  VIRIAL  =      4293.7826  VOLUME     =     37184.1955
                                                    Density    =         0.8343
 Ewald error estimate:   0.1825E-03
 ------------------------------------------------------------------------------

      A V E R A G E S   O V E R   10000 S T E P S

 NSTEP =    10000   TIME(PS) =      20.000  TEMP(K) =   292.88  PRESS =  -183.4
 Etot   =     -8062.9651  EKtot   =      1812.3940  EPtot      =     -9875.3591
 BOND   =         3.0848  ANGLE   =         7.9020  DIHED      =        10.9817
 1-4 NB =         3.2942  1-4 EEL =        46.7074  VDWAALS    =      1480.6597
 EELEC  =    -11431.1952  EHBOND  =         0.0000  RESTRAINT  =         3.2061
 EAMBER (non-restraint)  =     -9878.5652
 EKCMT  =       902.9950  VIRIAL  =      1038.8069  VOLUME     =     32256.1795
                                                    Density    =         0.9631
 Ewald error estimate:   0.1803E-03
 ------------------------------------------------------------------------------

      R M S  F L U C T U A T I O N S

 NSTEP =    10000   TIME(PS) =      20.000  TEMP(K) =    25.81  PRESS =   423.7
 Etot   =       342.4769  EKtot   =       159.6914  EPtot      =       189.9752
 BOND   =         1.4213  ANGLE   =         2.1259  DIHED      =         1.1778
 1-4 NB =         0.7175  1-4 EEL =         1.9691  VDWAALS    =        90.0262
 EELEC  =       270.1097  EHBOND  =         0.0000  RESTRAINT  =         1.2994
 EAMBER (non-restraint)  =       188.6758
 EKCMT  =        77.0781  VIRIAL  =       276.9033  VOLUME     =      1238.8864
                                                    Density    =         0.0345
 Ewald error estimate:   0.1313E-03
 ------------------------------------------------------------------------------
