-------------------------------------------------------
          Amber 16 SANDER                              2016
          -------------------------------------------------------

  [-O]verwriting output

File Assignments:

 Here is the input file:

Equilibrate water in NPT
 &cntrl

  nmropt = 0,
  ntx    = 1,       irest  = 0,       ntrx   = 1,      ntxo   = 1,
  ntpr   = 1000,    ntwx   = 1000,    ntwv   = 0,      ntwe   = 1000,
  iwrap  = 0,       ioutfm = 1,

  ntf    = 2,       ntb    = 2,
  cut = 9.0,

  ibelly = 0,       ntr    = 1,
  restraintmask = ':1',
  restraint_wt = 100.0,

  imin   = 0,
  nstlim = 10000,
  nscm   = 1000,
  t      = 0.0,     dt     = 0.002,

  temp0     = 298.0,   tempi  = 0.0,
  ig        = -1,
  ntt       = 3,
  gamma_ln  = 3.0,

  ntp    = 1,       pres0  = 1.0,     comp   = 44.6,
  taup   = 1.0,

  ntc    = 2,       tol    = 0.000001, watnam = 'WAT ',

 &end

--------------------------------------------------------------------------------
   1.  RESOURCE   USE:
--------------------------------------------------------------------------------

 getting new box info from bottom of inpcrd

 NATOM  =    2947 NTYPES =       9 NBONH =    2937 MBONA  =       9
 NTHETH =      25 MTHETA =      11 NPHIH =      43 MPHIA  =      24
 NHPARM =       0 NPARM  =       0 NNB   =    3999 NRES   =     978
 NBONA  =       9 NTHETA =      11 NPHIA =      24 NUMBND =      10
 NUMANG =      16 NPTRA  =      19 NATYP =       9 NPHB   =       1
 IFBOX  =       2 NMXRS  =      10 IFCAP =       0 NEXTRA =       0
 NCOPY  =       0

     BOX TYPE: TRUNCATED OCTAHEDRON
Note: ig = -1. Setting random seed to   927171 based on wallclock time in microseconds
      and disabling the synchronization of random numbers between tasks
      to improve performance.

--------------------------------------------------------------------------------
   2.  CONTROL  DATA  FOR  THE  RUN
--------------------------------------------------------------------------------

default_name

General flags:
     imin    =       0, nmropt  =       0

Nature and format of input:
     ntx     =       1, irest   =       0, ntrx    =       1

Nature and format of output:
     ntxo    =       1, ntpr    =    1000, ntrx    =       1, ntwr    =   10000
     iwrap   =       0, ntwx    =    1000, ntwv    =       0, ntwe    =    1000
     ioutfm  =       1, ntwprt  =       0, idecomp =       0, rbornstat=      0

Potential function:
     ntf     =       2, ntb     =       2, igb     =       0, nsnb    =      25
     ipol    =       0, gbsa    =       0, iesp    =       0
     dielc   =   1.00000, cut     =   9.00000, intdiel =   1.00000

Frozen or restrained atoms:
     ibelly  =       0, ntr     =       1
     restraint_wt = 100.00000

Molecular dynamics:
     nstlim  =     10000, nscm    =         0, nrespa  =         1
     t       =   0.00000, dt      =   0.00200, vlimit  =  20.00000

Langevin dynamics temperature regulation:
     ig      =  927171
     temp0   = 298.00000, tempi   =   0.00000, gamma_ln=   3.00000

Pressure regulation:
     ntp     =       1
     pres0   =   1.00000, comp    =  44.60000, taup    =   1.00000

SHAKE:
     ntc     =       2, jfastw  =       0
     tol     =   0.00000

Ewald parameters:
     verbose =       0, ew_type =       0, nbflag  =       1, use_pme =       1
     vdwmeth =       1, eedmeth =       1, netfrc  =       1
     Box X =   35.932   Box Y =   35.932   Box Z =   35.932
     Alpha =  109.471   Beta  =  109.471   Gamma =  109.471
     NFFT1 =   36       NFFT2 =   36       NFFT3 =   36
     Cutoff=    9.000   Tol   =0.100E-04
     Ewald Coefficient =  0.30768
     Interpolation order =    4

    LOADING THE CONSTRAINED ATOMS AS GROUPS

   5.  REFERENCE ATOM COORDINATES

  defa
     Mask :1; matches     6 atoms

--------------------------------------------------------------------------------
   3.  ATOMIC COORDINATES AND VELOCITIES
--------------------------------------------------------------------------------

defa
 begin time read from input coords =     0.000 ps

 Number of triangulated 3-point waters found:      975

     Sum of charges from parm topology file =  -0.00000000
     Forcing neutrality...

--------------------------------------------------------------------------------
   4.  RESULTS
 NSTEP =        0   TIME(PS) =       0.000  TEMP(K) =     0.00  PRESS = -5502.1
 Etot   =    -12863.1868  EKtot   =         0.0000  EPtot      =    -12863.1868
 BOND   =         0.2789  ANGLE   =         0.9350  DIHED      =         9.5101
 1-4 NB =         2.5141  1-4 EEL =        46.9151  VDWAALS    =      2234.9328
 EELEC  =    -15158.2924  EHBOND  =         0.0000  RESTRAINT  =         0.0196
 EAMBER (non-restraint)  =    -12863.2064
 EKCMT  =         0.0000  VIRIAL  =      4242.5816  VOLUME     =     35712.8044
                                                    Density    =         0.8235
 Ewald error estimate:   0.5449E-05
 ------------------------------------------------------------------------------

      A V E R A G E S   O V E R   10000 S T E P S

 NSTEP =    10000   TIME(PS) =      20.000  TEMP(K) =   293.50  PRESS =  -201.2
 Etot   =     -7626.9637  EKtot   =      1721.7101  EPtot      =     -9348.6737
 BOND   =         2.9746  ANGLE   =         7.7336  DIHED      =        11.3936
 1-4 NB =         3.1573  1-4 EEL =        46.9488  VDWAALS    =      1398.3635
 EELEC  =    -10822.3220  EHBOND  =         0.0000  RESTRAINT  =         3.0769
 EAMBER (non-restraint)  =     -9351.7506
 EKCMT  =       855.0991  VIRIAL  =       997.1173  VOLUME     =     30626.0507
                                                    Density    =         0.9618
 Ewald error estimate:   0.1819E-03
 ------------------------------------------------------------------------------

      R M S  F L U C T U A T I O N S

 NSTEP =    10000   TIME(PS) =      20.000  TEMP(K) =    26.52  PRESS =   456.2
 Etot   =       335.0078  EKtot   =       155.5981  EPtot      =       188.0497
 BOND   =         1.4665  ANGLE   =         2.3333  DIHED      =         1.1768
 1-4 NB =         0.6922  1-4 EEL =         2.0804  VDWAALS    =        90.0011
 EELEC  =       267.3928  EHBOND  =         0.0000  RESTRAINT  =         1.3446
 EAMBER (non-restraint)  =       186.7051
 EKCMT  =        76.0278  VIRIAL  =       286.5304  VOLUME     =      1280.8376
                                                    Density    =         0.0372
 Ewald error estimate:   0.1351E-03
 ------------------------------------------------------------------------------
