-------------------------------------------------------
          Amber 16 SANDER                              2016
          -------------------------------------------------------

  [-O]verwriting output

File Assignments:

 Here is the input file:

Equilibrate water in NPT
 &cntrl

  nmropt = 0,
  ntx    = 1,       irest  = 0,       ntrx   = 1,      ntxo   = 1,
  ntpr   = 1000,    ntwx   = 1000,    ntwv   = 0,      ntwe   = 1000,
  iwrap  = 0,       ioutfm = 1,

  ntf    = 2,       ntb    = 2,
  cut = 9.0,

  ibelly = 0,       ntr    = 1,
  restraintmask = ':1',
  restraint_wt = 100.0,

  imin   = 0,
  nstlim = 10000,
  nscm   = 1000,
  t      = 0.0,     dt     = 0.002,

  temp0     = 298.0,   tempi  = 0.0,
  ig        = -1,
  ntt       = 3,
  gamma_ln  = 3.0,

  ntp    = 1,       pres0  = 1.0,     comp   = 44.6,
  taup   = 1.0,

  ntc    = 2,       tol    = 0.000001, watnam = 'WAT ',

 &end

--------------------------------------------------------------------------------
   1.  RESOURCE   USE:
--------------------------------------------------------------------------------

 getting new box info from bottom of inpcrd

 NATOM  =    2911 NTYPES =       9 NBONH =    2901 MBONA  =       9
 NTHETH =      25 MTHETA =      11 NPHIH =      43 MPHIA  =      24
 NHPARM =       0 NPARM  =       0 NNB   =    3951 NRES   =     966
 NBONA  =       9 NTHETA =      11 NPHIA =      24 NUMBND =      10
 NUMANG =      16 NPTRA  =      19 NATYP =       9 NPHB   =       1
 IFBOX  =       2 NMXRS  =      10 IFCAP =       0 NEXTRA =       0
 NCOPY  =       0

     BOX TYPE: TRUNCATED OCTAHEDRON
Note: ig = -1. Setting random seed to   756419 based on wallclock time in microseconds
      and disabling the synchronization of random numbers between tasks
      to improve performance.

--------------------------------------------------------------------------------
   2.  CONTROL  DATA  FOR  THE  RUN
--------------------------------------------------------------------------------

default_name

General flags:
     imin    =       0, nmropt  =       0

Nature and format of input:
     ntx     =       1, irest   =       0, ntrx    =       1

Nature and format of output:
     ntxo    =       1, ntpr    =    1000, ntrx    =       1, ntwr    =   10000
     iwrap   =       0, ntwx    =    1000, ntwv    =       0, ntwe    =    1000
     ioutfm  =       1, ntwprt  =       0, idecomp =       0, rbornstat=      0

Potential function:
     ntf     =       2, ntb     =       2, igb     =       0, nsnb    =      25
     ipol    =       0, gbsa    =       0, iesp    =       0
     dielc   =   1.00000, cut     =   9.00000, intdiel =   1.00000

Frozen or restrained atoms:
     ibelly  =       0, ntr     =       1
     restraint_wt = 100.00000

Molecular dynamics:
     nstlim  =     10000, nscm    =         0, nrespa  =         1
     t       =   0.00000, dt      =   0.00200, vlimit  =  20.00000

Langevin dynamics temperature regulation:
     ig      =  756419
     temp0   = 298.00000, tempi   =   0.00000, gamma_ln=   3.00000

Pressure regulation:
     ntp     =       1
     pres0   =   1.00000, comp    =  44.60000, taup    =   1.00000

SHAKE:
     ntc     =       2, jfastw  =       0
     tol     =   0.00000

Ewald parameters:
     verbose =       0, ew_type =       0, nbflag  =       1, use_pme =       1
     vdwmeth =       1, eedmeth =       1, netfrc  =       1
     Box X =   35.743   Box Y =   35.743   Box Z =   35.743
     Alpha =  109.471   Beta  =  109.471   Gamma =  109.471
     NFFT1 =   36       NFFT2 =   36       NFFT3 =   36
     Cutoff=    9.000   Tol   =0.100E-04
     Ewald Coefficient =  0.30768
     Interpolation order =    4

    LOADING THE CONSTRAINED ATOMS AS GROUPS

   5.  REFERENCE ATOM COORDINATES

  defa
     Mask :1; matches     6 atoms

--------------------------------------------------------------------------------
   3.  ATOMIC COORDINATES AND VELOCITIES
--------------------------------------------------------------------------------

defa
 begin time read from input coords =     0.000 ps

 Number of triangulated 3-point waters found:      963

     Sum of charges from parm topology file =  -0.00000000
     Forcing neutrality...

--------------------------------------------------------------------------------
   4.  RESULTS
 NSTEP =        0   TIME(PS) =       0.000  TEMP(K) =     0.00  PRESS = -5466.8
 Etot   =    -12754.9212  EKtot   =         0.0000  EPtot      =    -12754.9212
 BOND   =         0.6576  ANGLE   =         3.8007  DIHED      =         9.1760
 1-4 NB =         2.2846  1-4 EEL =        43.5655  VDWAALS    =      2241.7566
 EELEC  =    -15056.4658  EHBOND  =         0.0000  RESTRAINT  =         0.3036
 EAMBER (non-restraint)  =    -12755.2248
 EKCMT  =         0.0000  VIRIAL  =      4149.3468  VOLUME     =     35153.5208
                                                    Density    =         0.8264
 Ewald error estimate:   0.1077E-03
 ------------------------------------------------------------------------------

      A V E R A G E S   O V E R   10000 S T E P S

 NSTEP =    10000   TIME(PS) =      20.000  TEMP(K) =   293.77  PRESS =  -193.0
 Etot   =     -7528.0974  EKtot   =      1702.3166  EPtot      =     -9230.4140
 BOND   =         3.3718  ANGLE   =         9.6820  DIHED      =        11.9787
 1-4 NB =         3.2294  1-4 EEL =        45.0929  VDWAALS    =      1382.6632
 EELEC  =    -10689.5953  EHBOND  =         0.0000  RESTRAINT  =         3.1633
 EAMBER (non-restraint)  =     -9233.5773
 EKCMT  =       845.0174  VIRIAL  =       979.5595  VOLUME     =     30176.3903
                                                    Density    =         0.9640
 Ewald error estimate:   0.1987E-03
 ------------------------------------------------------------------------------

      R M S  F L U C T U A T I O N S

 NSTEP =    10000   TIME(PS) =      20.000  TEMP(K) =    26.70  PRESS =   466.2
 Etot   =       333.9115  EKtot   =       154.6906  EPtot      =       184.4597
 BOND   =         1.5517  ANGLE   =         2.4364  DIHED      =         1.3650
 1-4 NB =         0.8040  1-4 EEL =         2.1335  VDWAALS    =        88.3436
 EELEC  =       264.5431  EHBOND  =         0.0000  RESTRAINT  =         1.3406
 EAMBER (non-restraint)  =       183.1190
 EKCMT  =        75.4331  VIRIAL  =       285.7146  VOLUME     =      1158.6984
                                                    Density    =         0.0339
 Ewald error estimate:   0.1428E-03
 ------------------------------------------------------------------------------
