-------------------------------------------------------
          Amber 16 SANDER                              2016
          -------------------------------------------------------

  [-O]verwriting output

File Assignments:

 Here is the input file:

Equilibrate water in NPT
 &cntrl

  nmropt = 0,
  ntx    = 1,       irest  = 0,       ntrx   = 1,      ntxo   = 1,
  ntpr   = 1000,    ntwx   = 1000,    ntwv   = 0,      ntwe   = 1000,
  iwrap  = 0,       ioutfm = 1,

  ntf    = 2,       ntb    = 2,
  cut = 9.0,

  ibelly = 0,       ntr    = 1,
  restraintmask = ':1',
  restraint_wt = 100.0,

  imin   = 0,
  nstlim = 10000,
  nscm   = 1000,
  t      = 0.0,     dt     = 0.002,

  temp0     = 298.0,   tempi  = 0.0,
  ig        = -1,
  ntt       = 3,
  gamma_ln  = 3.0,

  ntp    = 1,       pres0  = 1.0,     comp   = 44.6,
  taup   = 1.0,

  ntc    = 2,       tol    = 0.000001, watnam = 'WAT ',

 &end

--------------------------------------------------------------------------------
   1.  RESOURCE   USE:
--------------------------------------------------------------------------------

 getting new box info from bottom of inpcrd

 NATOM  =    2986 NTYPES =       9 NBONH =    2976 MBONA  =       9
 NTHETH =      25 MTHETA =      11 NPHIH =      43 MPHIA  =      24
 NHPARM =       0 NPARM  =       0 NNB   =    4051 NRES   =     991
 NBONA  =       9 NTHETA =      11 NPHIA =      24 NUMBND =      10
 NUMANG =      16 NPTRA  =      19 NATYP =       9 NPHB   =       1
 IFBOX  =       2 NMXRS  =      10 IFCAP =       0 NEXTRA =       0
 NCOPY  =       0

     BOX TYPE: TRUNCATED OCTAHEDRON
Note: ig = -1. Setting random seed to   194231 based on wallclock time in microseconds
      and disabling the synchronization of random numbers between tasks
      to improve performance.

--------------------------------------------------------------------------------
   2.  CONTROL  DATA  FOR  THE  RUN
--------------------------------------------------------------------------------

default_name

General flags:
     imin    =       0, nmropt  =       0

Nature and format of input:
     ntx     =       1, irest   =       0, ntrx    =       1

Nature and format of output:
     ntxo    =       1, ntpr    =    1000, ntrx    =       1, ntwr    =   10000
     iwrap   =       0, ntwx    =    1000, ntwv    =       0, ntwe    =    1000
     ioutfm  =       1, ntwprt  =       0, idecomp =       0, rbornstat=      0

Potential function:
     ntf     =       2, ntb     =       2, igb     =       0, nsnb    =      25
     ipol    =       0, gbsa    =       0, iesp    =       0
     dielc   =   1.00000, cut     =   9.00000, intdiel =   1.00000

Frozen or restrained atoms:
     ibelly  =       0, ntr     =       1
     restraint_wt = 100.00000

Molecular dynamics:
     nstlim  =     10000, nscm    =         0, nrespa  =         1
     t       =   0.00000, dt      =   0.00200, vlimit  =  20.00000

Langevin dynamics temperature regulation:
     ig      =  194231
     temp0   = 298.00000, tempi   =   0.00000, gamma_ln=   3.00000

Pressure regulation:
     ntp     =       1
     pres0   =   1.00000, comp    =  44.60000, taup    =   1.00000

SHAKE:
     ntc     =       2, jfastw  =       0
     tol     =   0.00000

Ewald parameters:
     verbose =       0, ew_type =       0, nbflag  =       1, use_pme =       1
     vdwmeth =       1, eedmeth =       1, netfrc  =       1
     Box X =   36.095   Box Y =   36.095   Box Z =   36.095
     Alpha =  109.471   Beta  =  109.471   Gamma =  109.471
     NFFT1 =   36       NFFT2 =   36       NFFT3 =   36
     Cutoff=    9.000   Tol   =0.100E-04
     Ewald Coefficient =  0.30768
     Interpolation order =    4

    LOADING THE CONSTRAINED ATOMS AS GROUPS

   5.  REFERENCE ATOM COORDINATES

  defa
     Mask :1; matches     6 atoms

--------------------------------------------------------------------------------
   3.  ATOMIC COORDINATES AND VELOCITIES
--------------------------------------------------------------------------------

defa
 begin time read from input coords =     0.000 ps

 Number of triangulated 3-point waters found:      988

     Sum of charges from parm topology file =  -0.00000000
     Forcing neutrality...

--------------------------------------------------------------------------------
   4.  RESULTS
 NSTEP =        0   TIME(PS) =       0.000  TEMP(K) =     0.00  PRESS = -5128.0
 Etot   =    -13109.2267  EKtot   =         0.0000  EPtot      =    -13109.2267
 BOND   =         0.5672  ANGLE   =         1.4532  DIHED      =        11.2051
 1-4 NB =         3.4235  1-4 EEL =        46.4084  VDWAALS    =      2351.8290
 EELEC  =    -15524.3198  EHBOND  =         0.0000  RESTRAINT  =         0.2067
 EAMBER (non-restraint)  =    -13109.4334
 EKCMT  =         0.0000  VIRIAL  =      4008.2387  VOLUME     =     36201.3616
                                                    Density    =         0.8231
 Ewald error estimate:   0.9410E-04
 ------------------------------------------------------------------------------

      A V E R A G E S   O V E R   10000 S T E P S

 NSTEP =    10000   TIME(PS) =      20.000  TEMP(K) =   292.36  PRESS =  -203.4
 Etot   =     -7760.5408  EKtot   =      1737.7111  EPtot      =     -9498.2519
 BOND   =         2.9223  ANGLE   =         8.1069  DIHED      =        11.4854
 1-4 NB =         2.9819  1-4 EEL =        46.8217  VDWAALS    =      1418.8538
 EELEC  =    -10992.3833  EHBOND  =         0.0000  RESTRAINT  =         2.9593
 EAMBER (non-restraint)  =     -9501.2112
 EKCMT  =       864.1616  VIRIAL  =      1009.5193  VOLUME     =     30906.2048
                                                    Density    =         0.9657
 Ewald error estimate:   0.1953E-03
 ------------------------------------------------------------------------------

      R M S  F L U C T U A T I O N S

 NSTEP =    10000   TIME(PS) =      20.000  TEMP(K) =    26.33  PRESS =   473.2
 Etot   =       329.3708  EKtot   =       156.4786  EPtot      =       179.5930
 BOND   =         1.4005  ANGLE   =         2.1596  DIHED      =         1.0760
 1-4 NB =         0.6721  1-4 EEL =         1.9178  VDWAALS    =        94.8811
 EELEC  =       265.0335  EHBOND  =         0.0000  RESTRAINT  =         1.2255
 EAMBER (non-restraint)  =       178.3675
 EKCMT  =        76.9448  VIRIAL  =       303.1582  VOLUME     =      1317.7117
                                                    Density    =         0.0378
 Ewald error estimate:   0.1503E-03
 ------------------------------------------------------------------------------
