-------------------------------------------------------
          Amber 16 SANDER                              2016
          -------------------------------------------------------

  [-O]verwriting output

File Assignments:

 Here is the input file:

Equilibrate water in NPT
 &cntrl

  nmropt = 0,
  ntx    = 1,       irest  = 0,       ntrx   = 1,      ntxo   = 1,
  ntpr   = 1000,    ntwx   = 1000,    ntwv   = 0,      ntwe   = 1000,
  iwrap  = 0,       ioutfm = 1,

  ntf    = 2,       ntb    = 2,
  cut = 9.0,

  ibelly = 0,       ntr    = 1,
  restraintmask = ':1',
  restraint_wt = 100.0,

  imin   = 0,
  nstlim = 10000,
  nscm   = 1000,
  t      = 0.0,     dt     = 0.002,

  temp0     = 298.0,   tempi  = 0.0,
  ig        = -1,
  ntt       = 3,
  gamma_ln  = 3.0,

  ntp    = 1,       pres0  = 1.0,     comp   = 44.6,
  taup   = 1.0,

  ntc    = 2,       tol    = 0.000001, watnam = 'WAT ',

 &end

--------------------------------------------------------------------------------
   1.  RESOURCE   USE:
--------------------------------------------------------------------------------

 getting new box info from bottom of inpcrd

 NATOM  =    3049 NTYPES =       9 NBONH =    3039 MBONA  =       9
 NTHETH =      25 MTHETA =      11 NPHIH =      43 MPHIA  =      24
 NHPARM =       0 NPARM  =       0 NNB   =    4135 NRES   =    1012
 NBONA  =       9 NTHETA =      11 NPHIA =      24 NUMBND =      10
 NUMANG =      16 NPTRA  =      19 NATYP =       9 NPHB   =       1
 IFBOX  =       2 NMXRS  =      10 IFCAP =       0 NEXTRA =       0
 NCOPY  =       0

     BOX TYPE: TRUNCATED OCTAHEDRON
Note: ig = -1. Setting random seed to   583504 based on wallclock time in microseconds
      and disabling the synchronization of random numbers between tasks
      to improve performance.

--------------------------------------------------------------------------------
   2.  CONTROL  DATA  FOR  THE  RUN
--------------------------------------------------------------------------------

default_name

General flags:
     imin    =       0, nmropt  =       0

Nature and format of input:
     ntx     =       1, irest   =       0, ntrx    =       1

Nature and format of output:
     ntxo    =       1, ntpr    =    1000, ntrx    =       1, ntwr    =   10000
     iwrap   =       0, ntwx    =    1000, ntwv    =       0, ntwe    =    1000
     ioutfm  =       1, ntwprt  =       0, idecomp =       0, rbornstat=      0

Potential function:
     ntf     =       2, ntb     =       2, igb     =       0, nsnb    =      25
     ipol    =       0, gbsa    =       0, iesp    =       0
     dielc   =   1.00000, cut     =   9.00000, intdiel =   1.00000

Frozen or restrained atoms:
     ibelly  =       0, ntr     =       1
     restraint_wt = 100.00000

Molecular dynamics:
     nstlim  =     10000, nscm    =         0, nrespa  =         1
     t       =   0.00000, dt      =   0.00200, vlimit  =  20.00000

Langevin dynamics temperature regulation:
     ig      =  583504
     temp0   = 298.00000, tempi   =   0.00000, gamma_ln=   3.00000

Pressure regulation:
     ntp     =       1
     pres0   =   1.00000, comp    =  44.60000, taup    =   1.00000

SHAKE:
     ntc     =       2, jfastw  =       0
     tol     =   0.00000

Ewald parameters:
     verbose =       0, ew_type =       0, nbflag  =       1, use_pme =       1
     vdwmeth =       1, eedmeth =       1, netfrc  =       1
     Box X =   36.238   Box Y =   36.238   Box Z =   36.238
     Alpha =  109.471   Beta  =  109.471   Gamma =  109.471
     NFFT1 =   36       NFFT2 =   36       NFFT3 =   36
     Cutoff=    9.000   Tol   =0.100E-04
     Ewald Coefficient =  0.30768
     Interpolation order =    4

    LOADING THE CONSTRAINED ATOMS AS GROUPS

   5.  REFERENCE ATOM COORDINATES

  defa
     Mask :1; matches     6 atoms

--------------------------------------------------------------------------------
   3.  ATOMIC COORDINATES AND VELOCITIES
--------------------------------------------------------------------------------

defa
 begin time read from input coords =     0.000 ps

 Number of triangulated 3-point waters found:     1009

     Sum of charges from parm topology file =  -0.00000000
     Forcing neutrality...

--------------------------------------------------------------------------------
   4.  RESULTS
 NSTEP =        0   TIME(PS) =       0.000  TEMP(K) =     0.00  PRESS = -5449.9
 Etot   =    -13279.3231  EKtot   =         0.0000  EPtot      =    -13279.3231
 BOND   =         0.6366  ANGLE   =         0.9469  DIHED      =         8.4534
 1-4 NB =         2.7418  1-4 EEL =        45.7188  VDWAALS    =      2320.6329
 EELEC  =    -15658.6943  EHBOND  =         0.0000  RESTRAINT  =         0.2407
 EAMBER (non-restraint)  =    -13279.5639
 EKCMT  =         0.0000  VIRIAL  =      4310.5644  VOLUME     =     36632.6674
                                                    Density    =         0.8306
 Ewald error estimate:   0.2479E-03
 ------------------------------------------------------------------------------

      A V E R A G E S   O V E R   10000 S T E P S

 NSTEP =    10000   TIME(PS) =      20.000  TEMP(K) =   292.83  PRESS =  -202.6
 Etot   =     -7925.4871  EKtot   =      1777.1271  EPtot      =     -9702.6142
 BOND   =         3.1661  ANGLE   =         8.0763  DIHED      =        10.9000
 1-4 NB =         3.1669  1-4 EEL =        45.4929  VDWAALS    =      1453.7353
 EELEC  =    -11230.1890  EHBOND  =         0.0000  RESTRAINT  =         3.0374
 EAMBER (non-restraint)  =     -9705.6516
 EKCMT  =       883.5021  VIRIAL  =      1030.1123  VOLUME     =     31522.8474
                                                    Density    =         0.9664
 Ewald error estimate:   0.1913E-03
 ------------------------------------------------------------------------------

      R M S  F L U C T U A T I O N S

 NSTEP =    10000   TIME(PS) =      20.000  TEMP(K) =    25.92  PRESS =   465.3
 Etot   =       329.4882  EKtot   =       157.2877  EPtot      =       177.7086
 BOND   =         1.4883  ANGLE   =         2.2396  DIHED      =         1.1687
 1-4 NB =         0.7239  1-4 EEL =         1.9591  VDWAALS    =        87.4118
 EELEC  =       253.8703  EHBOND  =         0.0000  RESTRAINT  =         1.1790
 EAMBER (non-restraint)  =       176.5296
 EKCMT  =        75.8779  VIRIAL  =       300.0205  VOLUME     =      1175.4985
                                                    Density    =         0.0333
 Ewald error estimate:   0.1379E-03
 ------------------------------------------------------------------------------
