-------------------------------------------------------
          Amber 16 SANDER                              2016
          -------------------------------------------------------

  [-O]verwriting output

File Assignments:

 Here is the input file:

Equilibrate water in NPT
 &cntrl

  nmropt = 0,
  ntx    = 1,       irest  = 0,       ntrx   = 1,      ntxo   = 1,
  ntpr   = 1000,    ntwx   = 1000,    ntwv   = 0,      ntwe   = 1000,
  iwrap  = 0,       ioutfm = 1,

  ntf    = 2,       ntb    = 2,
  cut = 9.0,

  ibelly = 0,       ntr    = 1,
  restraintmask = ':1',
  restraint_wt = 100.0,

  imin   = 0,
  nstlim = 10000,
  nscm   = 1000,
  t      = 0.0,     dt     = 0.002,

  temp0     = 298.0,   tempi  = 0.0,
  ig        = -1,
  ntt       = 3,
  gamma_ln  = 3.0,

  ntp    = 1,       pres0  = 1.0,     comp   = 44.6,
  taup   = 1.0,

  ntc    = 2,       tol    = 0.000001, watnam = 'WAT ',

 &end

--------------------------------------------------------------------------------
   1.  RESOURCE   USE:
--------------------------------------------------------------------------------

 getting new box info from bottom of inpcrd

 NATOM  =    3106 NTYPES =       9 NBONH =    3096 MBONA  =       9
 NTHETH =      25 MTHETA =      11 NPHIH =      43 MPHIA  =      24
 NHPARM =       0 NPARM  =       0 NNB   =    4211 NRES   =    1031
 NBONA  =       9 NTHETA =      11 NPHIA =      24 NUMBND =      10
 NUMANG =      16 NPTRA  =      19 NATYP =       9 NPHB   =       1
 IFBOX  =       2 NMXRS  =      10 IFCAP =       0 NEXTRA =       0
 NCOPY  =       0

     BOX TYPE: TRUNCATED OCTAHEDRON
Note: ig = -1. Setting random seed to    48672 based on wallclock time in microseconds
      and disabling the synchronization of random numbers between tasks
      to improve performance.

--------------------------------------------------------------------------------
   2.  CONTROL  DATA  FOR  THE  RUN
--------------------------------------------------------------------------------

default_name

General flags:
     imin    =       0, nmropt  =       0

Nature and format of input:
     ntx     =       1, irest   =       0, ntrx    =       1

Nature and format of output:
     ntxo    =       1, ntpr    =    1000, ntrx    =       1, ntwr    =   10000
     iwrap   =       0, ntwx    =    1000, ntwv    =       0, ntwe    =    1000
     ioutfm  =       1, ntwprt  =       0, idecomp =       0, rbornstat=      0

Potential function:
     ntf     =       2, ntb     =       2, igb     =       0, nsnb    =      25
     ipol    =       0, gbsa    =       0, iesp    =       0
     dielc   =   1.00000, cut     =   9.00000, intdiel =   1.00000

Frozen or restrained atoms:
     ibelly  =       0, ntr     =       1
     restraint_wt = 100.00000

Molecular dynamics:
     nstlim  =     10000, nscm    =         0, nrespa  =         1
     t       =   0.00000, dt      =   0.00200, vlimit  =  20.00000

Langevin dynamics temperature regulation:
     ig      =   48672
     temp0   = 298.00000, tempi   =   0.00000, gamma_ln=   3.00000

Pressure regulation:
     ntp     =       1
     pres0   =   1.00000, comp    =  44.60000, taup    =   1.00000

SHAKE:
     ntc     =       2, jfastw  =       0
     tol     =   0.00000

Ewald parameters:
     verbose =       0, ew_type =       0, nbflag  =       1, use_pme =       1
     vdwmeth =       1, eedmeth =       1, netfrc  =       1
     Box X =   36.400   Box Y =   36.400   Box Z =   36.400
     Alpha =  109.471   Beta  =  109.471   Gamma =  109.471
     NFFT1 =   36       NFFT2 =   36       NFFT3 =   36
     Cutoff=    9.000   Tol   =0.100E-04
     Ewald Coefficient =  0.30768
     Interpolation order =    4

    LOADING THE CONSTRAINED ATOMS AS GROUPS

   5.  REFERENCE ATOM COORDINATES

  defa
     Mask :1; matches     6 atoms

--------------------------------------------------------------------------------
   3.  ATOMIC COORDINATES AND VELOCITIES
--------------------------------------------------------------------------------

defa
 begin time read from input coords =     0.000 ps

 Number of triangulated 3-point waters found:     1028

     Sum of charges from parm topology file =  -0.00000000
     Forcing neutrality...

--------------------------------------------------------------------------------
   4.  RESULTS
 NSTEP =        0   TIME(PS) =       0.000  TEMP(K) =     0.00  PRESS = -5438.0
 Etot   =    -13636.2827  EKtot   =         0.0000  EPtot      =    -13636.2827
 BOND   =         1.0149  ANGLE   =         3.8117  DIHED      =        11.7332
 1-4 NB =         2.9280  1-4 EEL =        46.4842  VDWAALS    =      2400.2116
 EELEC  =    -16102.9230  EHBOND  =         0.0000  RESTRAINT  =         0.4568
 EAMBER (non-restraint)  =    -13636.7394
 EKCMT  =         0.0000  VIRIAL  =      4358.9659  VOLUME     =     37125.1655
                                                    Density    =         0.8348
 Ewald error estimate:   0.1761E-03
 ------------------------------------------------------------------------------

      A V E R A G E S   O V E R   10000 S T E P S

 NSTEP =    10000   TIME(PS) =      20.000  TEMP(K) =   292.99  PRESS =  -188.3
 Etot   =     -8071.3329  EKtot   =      1811.3371  EPtot      =     -9882.6700
 BOND   =         3.3081  ANGLE   =         9.4354  DIHED      =        11.8278
 1-4 NB =         3.2220  1-4 EEL =        46.0163  VDWAALS    =      1483.2666
 EELEC  =    -11442.7491  EHBOND  =         0.0000  RESTRAINT  =         3.0028
 EAMBER (non-restraint)  =     -9885.6728
 EKCMT  =       901.2283  VIRIAL  =      1040.1951  VOLUME     =     32095.3526
                                                    Density    =         0.9671
 Ewald error estimate:   0.1916E-03
 ------------------------------------------------------------------------------

      R M S  F L U C T U A T I O N S

 NSTEP =    10000   TIME(PS) =      20.000  TEMP(K) =    26.37  PRESS =   439.5
 Etot   =       349.9877  EKtot   =       163.0169  EPtot      =       193.8922
 BOND   =         1.5157  ANGLE   =         2.3711  DIHED      =         1.4846
 1-4 NB =         0.6773  1-4 EEL =         1.8357  VDWAALS    =        96.3215
 EELEC  =       280.2118  EHBOND  =         0.0000  RESTRAINT  =         1.1867
 EAMBER (non-restraint)  =       192.7056
 EKCMT  =        80.5424  VIRIAL  =       283.7881  VOLUME     =      1286.4200
                                                    Density    =         0.0360
 Ewald error estimate:   0.1410E-03
 ------------------------------------------------------------------------------
