-------------------------------------------------------
          Amber 16 SANDER                              2016
          -------------------------------------------------------

  [-O]verwriting output

File Assignments:

 Here is the input file:

Equilibrate water in NPT
 &cntrl

  nmropt = 0,
  ntx    = 1,       irest  = 0,       ntrx   = 1,      ntxo   = 1,
  ntpr   = 1000,    ntwx   = 1000,    ntwv   = 0,      ntwe   = 1000,
  iwrap  = 0,       ioutfm = 1,

  ntf    = 2,       ntb    = 2,
  cut = 9.0,

  ibelly = 0,       ntr    = 1,
  restraintmask = ':1',
  restraint_wt = 100.0,

  imin   = 0,
  nstlim = 10000,
  nscm   = 1000,
  t      = 0.0,     dt     = 0.002,

  temp0     = 298.0,   tempi  = 0.0,
  ig        = -1,
  ntt       = 3,
  gamma_ln  = 3.0,

  ntp    = 1,       pres0  = 1.0,     comp   = 44.6,
  taup   = 1.0,

  ntc    = 2,       tol    = 0.000001, watnam = 'WAT ',

 &end

--------------------------------------------------------------------------------
   1.  RESOURCE   USE:
--------------------------------------------------------------------------------

 getting new box info from bottom of inpcrd

 NATOM  =    2764 NTYPES =       9 NBONH =    2754 MBONA  =       9
 NTHETH =      25 MTHETA =      11 NPHIH =      43 MPHIA  =      24
 NHPARM =       0 NPARM  =       0 NNB   =    3755 NRES   =     917
 NBONA  =       9 NTHETA =      11 NPHIA =      24 NUMBND =      10
 NUMANG =      16 NPTRA  =      19 NATYP =       9 NPHB   =       1
 IFBOX  =       2 NMXRS  =      10 IFCAP =       0 NEXTRA =       0
 NCOPY  =       0

     BOX TYPE: TRUNCATED OCTAHEDRON
Note: ig = -1. Setting random seed to     5845 based on wallclock time in microseconds
      and disabling the synchronization of random numbers between tasks
      to improve performance.

--------------------------------------------------------------------------------
   2.  CONTROL  DATA  FOR  THE  RUN
--------------------------------------------------------------------------------

default_name

General flags:
     imin    =       0, nmropt  =       0

Nature and format of input:
     ntx     =       1, irest   =       0, ntrx    =       1

Nature and format of output:
     ntxo    =       1, ntpr    =    1000, ntrx    =       1, ntwr    =   10000
     iwrap   =       0, ntwx    =    1000, ntwv    =       0, ntwe    =    1000
     ioutfm  =       1, ntwprt  =       0, idecomp =       0, rbornstat=      0

Potential function:
     ntf     =       2, ntb     =       2, igb     =       0, nsnb    =      25
     ipol    =       0, gbsa    =       0, iesp    =       0
     dielc   =   1.00000, cut     =   9.00000, intdiel =   1.00000

Frozen or restrained atoms:
     ibelly  =       0, ntr     =       1
     restraint_wt = 100.00000

Molecular dynamics:
     nstlim  =     10000, nscm    =         0, nrespa  =         1
     t       =   0.00000, dt      =   0.00200, vlimit  =  20.00000

Langevin dynamics temperature regulation:
     ig      =    5845
     temp0   = 298.00000, tempi   =   0.00000, gamma_ln=   3.00000

Pressure regulation:
     ntp     =       1
     pres0   =   1.00000, comp    =  44.60000, taup    =   1.00000

SHAKE:
     ntc     =       2, jfastw  =       0
     tol     =   0.00000

Ewald parameters:
     verbose =       0, ew_type =       0, nbflag  =       1, use_pme =       1
     vdwmeth =       1, eedmeth =       1, netfrc  =       1
     Box X =   35.073   Box Y =   35.073   Box Z =   35.073
     Alpha =  109.471   Beta  =  109.471   Gamma =  109.471
     NFFT1 =   36       NFFT2 =   36       NFFT3 =   36
     Cutoff=    9.000   Tol   =0.100E-04
     Ewald Coefficient =  0.30768
     Interpolation order =    4

    LOADING THE CONSTRAINED ATOMS AS GROUPS

   5.  REFERENCE ATOM COORDINATES

  defa
     Mask :1; matches     6 atoms

--------------------------------------------------------------------------------
   3.  ATOMIC COORDINATES AND VELOCITIES
--------------------------------------------------------------------------------

defa
 begin time read from input coords =     0.000 ps

 Number of triangulated 3-point waters found:      914

     Sum of charges from parm topology file =  -0.00000000
     Forcing neutrality...

--------------------------------------------------------------------------------
   4.  RESULTS
 NSTEP =        0   TIME(PS) =       0.000  TEMP(K) =     0.00  PRESS = -4851.7
 Etot   =    -12042.2665  EKtot   =         0.0000  EPtot      =    -12042.2665
 BOND   =         0.7522  ANGLE   =         1.9911  DIHED      =         9.3621
 1-4 NB =         2.9672  1-4 EEL =        44.7451  VDWAALS    =      2184.3558
 EELEC  =    -14286.7021  EHBOND  =         0.0000  RESTRAINT  =         0.2621
 EAMBER (non-restraint)  =    -12042.5286
 EKCMT  =         0.0000  VIRIAL  =      3478.9939  VOLUME     =     33210.9806
                                                    Density    =         0.8305
 Ewald error estimate:   0.1659E-03
 ------------------------------------------------------------------------------

      A V E R A G E S   O V E R   10000 S T E P S

 NSTEP =    10000   TIME(PS) =      20.000  TEMP(K) =   294.24  PRESS =  -192.6
 Etot   =     -7145.4139  EKtot   =      1619.0861  EPtot      =     -8764.5001
 BOND   =         3.1041  ANGLE   =         8.6871  DIHED      =        11.6030
 1-4 NB =         3.0141  1-4 EEL =        45.6507  VDWAALS    =      1307.0448
 EELEC  =    -10146.8222  EHBOND  =         0.0000  RESTRAINT  =         3.2183
 EAMBER (non-restraint)  =     -8767.7183
 EKCMT  =       805.7195  VIRIAL  =       932.5872  VOLUME     =     28640.7998
                                                    Density    =         0.9645
 Ewald error estimate:   0.2017E-03
 ------------------------------------------------------------------------------

      R M S  F L U C T U A T I O N S

 NSTEP =    10000   TIME(PS) =      20.000  TEMP(K) =    26.15  PRESS =   444.0
 Etot   =       300.0566  EKtot   =       143.9028  EPtot      =       162.7474
 BOND   =         1.4503  ANGLE   =         2.3749  DIHED      =         1.2087
 1-4 NB =         0.7043  1-4 EEL =         2.0444  VDWAALS    =        85.6601
 EELEC  =       239.1053  EHBOND  =         0.0000  RESTRAINT  =         1.3169
 EAMBER (non-restraint)  =       161.4305
 EKCMT  =        69.6860  VIRIAL  =       263.9558  VOLUME     =      1149.4498
                                                    Density    =         0.0358
 Ewald error estimate:   0.1595E-03
 ------------------------------------------------------------------------------
