-------------------------------------------------------
          Amber 16 SANDER                              2016
          -------------------------------------------------------

  [-O]verwriting output

File Assignments:

 Here is the input file:

Equilibrate water in NPT
 &cntrl

  nmropt = 0,
  ntx    = 1,       irest  = 0,       ntrx   = 1,      ntxo   = 1,
  ntpr   = 1000,    ntwx   = 1000,    ntwv   = 0,      ntwe   = 1000,
  iwrap  = 0,       ioutfm = 1,

  ntf    = 2,       ntb    = 2,
  cut = 9.0,

  ibelly = 0,       ntr    = 1,
  restraintmask = ':1',
  restraint_wt = 100.0,

  imin   = 0,
  nstlim = 10000,
  nscm   = 1000,
  t      = 0.0,     dt     = 0.002,

  temp0     = 298.0,   tempi  = 0.0,
  ig        = -1,
  ntt       = 3,
  gamma_ln  = 3.0,

  ntp    = 1,       pres0  = 1.0,     comp   = 44.6,
  taup   = 1.0,

  ntc    = 2,       tol    = 0.000001, watnam = 'WAT ',

 &end

--------------------------------------------------------------------------------
   1.  RESOURCE   USE:
--------------------------------------------------------------------------------

 getting new box info from bottom of inpcrd

 NATOM  =    3094 NTYPES =       9 NBONH =    3084 MBONA  =       9
 NTHETH =      25 MTHETA =      11 NPHIH =      43 MPHIA  =      24
 NHPARM =       0 NPARM  =       0 NNB   =    4195 NRES   =    1027
 NBONA  =       9 NTHETA =      11 NPHIA =      24 NUMBND =      10
 NUMANG =      16 NPTRA  =      19 NATYP =       9 NPHB   =       1
 IFBOX  =       2 NMXRS  =      10 IFCAP =       0 NEXTRA =       0
 NCOPY  =       0

     BOX TYPE: TRUNCATED OCTAHEDRON
Note: ig = -1. Setting random seed to   486968 based on wallclock time in microseconds
      and disabling the synchronization of random numbers between tasks
      to improve performance.

--------------------------------------------------------------------------------
   2.  CONTROL  DATA  FOR  THE  RUN
--------------------------------------------------------------------------------

default_name

General flags:
     imin    =       0, nmropt  =       0

Nature and format of input:
     ntx     =       1, irest   =       0, ntrx    =       1

Nature and format of output:
     ntxo    =       1, ntpr    =    1000, ntrx    =       1, ntwr    =   10000
     iwrap   =       0, ntwx    =    1000, ntwv    =       0, ntwe    =    1000
     ioutfm  =       1, ntwprt  =       0, idecomp =       0, rbornstat=      0

Potential function:
     ntf     =       2, ntb     =       2, igb     =       0, nsnb    =      25
     ipol    =       0, gbsa    =       0, iesp    =       0
     dielc   =   1.00000, cut     =   9.00000, intdiel =   1.00000

Frozen or restrained atoms:
     ibelly  =       0, ntr     =       1
     restraint_wt = 100.00000

Molecular dynamics:
     nstlim  =     10000, nscm    =         0, nrespa  =         1
     t       =   0.00000, dt      =   0.00200, vlimit  =  20.00000

Langevin dynamics temperature regulation:
     ig      =  486968
     temp0   = 298.00000, tempi   =   0.00000, gamma_ln=   3.00000

Pressure regulation:
     ntp     =       1
     pres0   =   1.00000, comp    =  44.60000, taup    =   1.00000

SHAKE:
     ntc     =       2, jfastw  =       0
     tol     =   0.00000

Ewald parameters:
     verbose =       0, ew_type =       0, nbflag  =       1, use_pme =       1
     vdwmeth =       1, eedmeth =       1, netfrc  =       1
     Box X =   36.403   Box Y =   36.403   Box Z =   36.403
     Alpha =  109.471   Beta  =  109.471   Gamma =  109.471
     NFFT1 =   36       NFFT2 =   36       NFFT3 =   36
     Cutoff=    9.000   Tol   =0.100E-04
     Ewald Coefficient =  0.30768
     Interpolation order =    4

    LOADING THE CONSTRAINED ATOMS AS GROUPS

   5.  REFERENCE ATOM COORDINATES

  defa
     Mask :1; matches     6 atoms

--------------------------------------------------------------------------------
   3.  ATOMIC COORDINATES AND VELOCITIES
--------------------------------------------------------------------------------

defa
 begin time read from input coords =     0.000 ps

 Number of triangulated 3-point waters found:     1024

     Sum of charges from parm topology file =  -0.00000000
     Forcing neutrality...

--------------------------------------------------------------------------------
   4.  RESULTS
 NSTEP =        0   TIME(PS) =       0.000  TEMP(K) =     0.00  PRESS = -5190.5
 Etot   =    -13544.9576  EKtot   =         0.0000  EPtot      =    -13544.9576
 BOND   =         0.4990  ANGLE   =         0.9101  DIHED      =         8.5348
 1-4 NB =         2.8229  1-4 EEL =        46.7653  VDWAALS    =      2419.3374
 EELEC  =    -16023.8649  EHBOND  =         0.0000  RESTRAINT  =         0.0376
 EAMBER (non-restraint)  =    -13544.9952
 EKCMT  =         0.0000  VIRIAL  =      4161.7645  VOLUME     =     37135.4954
                                                    Density    =         0.8314
 Ewald error estimate:   0.1634E-04
 ------------------------------------------------------------------------------

      A V E R A G E S   O V E R   10000 S T E P S

 NSTEP =    10000   TIME(PS) =      20.000  TEMP(K) =   292.51  PRESS =  -186.3
 Etot   =     -8039.6107  EKtot   =      1801.3647  EPtot      =     -9840.9754
 BOND   =         3.1358  ANGLE   =         8.1640  DIHED      =        10.8669
 1-4 NB =         3.2523  1-4 EEL =        46.0695  VDWAALS    =      1479.6697
 EELEC  =    -11395.0838  EHBOND  =         0.0000  RESTRAINT  =         2.9502
 EAMBER (non-restraint)  =     -9843.9256
 EKCMT  =       897.3087  VIRIAL  =      1034.9508  VOLUME     =     32066.8982
                                                    Density    =         0.9640
 Ewald error estimate:   0.1775E-03
 ------------------------------------------------------------------------------

      R M S  F L U C T U A T I O N S

 NSTEP =    10000   TIME(PS) =      20.000  TEMP(K) =    25.96  PRESS =   454.9
 Etot   =       341.8171  EKtot   =       159.8930  EPtot      =       187.7790
 BOND   =         1.5051  ANGLE   =         2.3648  DIHED      =         1.2039
 1-4 NB =         0.7357  1-4 EEL =         2.0523  VDWAALS    =        89.0951
 EELEC  =       267.4653  EHBOND  =         0.0000  RESTRAINT  =         1.1677
 EAMBER (non-restraint)  =       186.6114
 EKCMT  =        77.3014  VIRIAL  =       298.1464  VOLUME     =      1166.6419
                                                    Density    =         0.0324
 Ewald error estimate:   0.1376E-03
 ------------------------------------------------------------------------------
