-------------------------------------------------------
          Amber 16 SANDER                              2016
          -------------------------------------------------------

  [-O]verwriting output

File Assignments:

 Here is the input file:

Equilibrate water in NPT
 &cntrl

  nmropt = 0,
  ntx    = 1,       irest  = 0,       ntrx   = 1,      ntxo   = 1,
  ntpr   = 1000,    ntwx   = 1000,    ntwv   = 0,      ntwe   = 1000,
  iwrap  = 0,       ioutfm = 1,

  ntf    = 2,       ntb    = 2,
  cut = 9.0,

  ibelly = 0,       ntr    = 1,
  restraintmask = ':1',
  restraint_wt = 100.0,

  imin   = 0,
  nstlim = 10000,
  nscm   = 1000,
  t      = 0.0,     dt     = 0.002,

  temp0     = 298.0,   tempi  = 0.0,
  ig        = -1,
  ntt       = 3,
  gamma_ln  = 3.0,

  ntp    = 1,       pres0  = 1.0,     comp   = 44.6,
  taup   = 1.0,

  ntc    = 2,       tol    = 0.000001, watnam = 'WAT ',

 &end

--------------------------------------------------------------------------------
   1.  RESOURCE   USE:
--------------------------------------------------------------------------------

 getting new box info from bottom of inpcrd

 NATOM  =    3097 NTYPES =       9 NBONH =    3087 MBONA  =       9
 NTHETH =      25 MTHETA =      11 NPHIH =      43 MPHIA  =      24
 NHPARM =       0 NPARM  =       0 NNB   =    4199 NRES   =    1028
 NBONA  =       9 NTHETA =      11 NPHIA =      24 NUMBND =      10
 NUMANG =      16 NPTRA  =      19 NATYP =       9 NPHB   =       1
 IFBOX  =       2 NMXRS  =      10 IFCAP =       0 NEXTRA =       0
 NCOPY  =       0

     BOX TYPE: TRUNCATED OCTAHEDRON
Note: ig = -1. Setting random seed to   343491 based on wallclock time in microseconds
      and disabling the synchronization of random numbers between tasks
      to improve performance.

--------------------------------------------------------------------------------
   2.  CONTROL  DATA  FOR  THE  RUN
--------------------------------------------------------------------------------

default_name

General flags:
     imin    =       0, nmropt  =       0

Nature and format of input:
     ntx     =       1, irest   =       0, ntrx    =       1

Nature and format of output:
     ntxo    =       1, ntpr    =    1000, ntrx    =       1, ntwr    =   10000
     iwrap   =       0, ntwx    =    1000, ntwv    =       0, ntwe    =    1000
     ioutfm  =       1, ntwprt  =       0, idecomp =       0, rbornstat=      0

Potential function:
     ntf     =       2, ntb     =       2, igb     =       0, nsnb    =      25
     ipol    =       0, gbsa    =       0, iesp    =       0
     dielc   =   1.00000, cut     =   9.00000, intdiel =   1.00000

Frozen or restrained atoms:
     ibelly  =       0, ntr     =       1
     restraint_wt = 100.00000

Molecular dynamics:
     nstlim  =     10000, nscm    =         0, nrespa  =         1
     t       =   0.00000, dt      =   0.00200, vlimit  =  20.00000

Langevin dynamics temperature regulation:
     ig      =  343491
     temp0   = 298.00000, tempi   =   0.00000, gamma_ln=   3.00000

Pressure regulation:
     ntp     =       1
     pres0   =   1.00000, comp    =  44.60000, taup    =   1.00000

SHAKE:
     ntc     =       2, jfastw  =       0
     tol     =   0.00000

Ewald parameters:
     verbose =       0, ew_type =       0, nbflag  =       1, use_pme =       1
     vdwmeth =       1, eedmeth =       1, netfrc  =       1
     Box X =   36.349   Box Y =   36.349   Box Z =   36.349
     Alpha =  109.471   Beta  =  109.471   Gamma =  109.471
     NFFT1 =   36       NFFT2 =   36       NFFT3 =   36
     Cutoff=    9.000   Tol   =0.100E-04
     Ewald Coefficient =  0.30768
     Interpolation order =    4

    LOADING THE CONSTRAINED ATOMS AS GROUPS

   5.  REFERENCE ATOM COORDINATES

  defa
     Mask :1; matches     6 atoms

--------------------------------------------------------------------------------
   3.  ATOMIC COORDINATES AND VELOCITIES
--------------------------------------------------------------------------------

defa
 begin time read from input coords =     0.000 ps

 Number of triangulated 3-point waters found:     1025

     Sum of charges from parm topology file =  -0.00000000
     Forcing neutrality...

--------------------------------------------------------------------------------
   4.  RESULTS
 NSTEP =        0   TIME(PS) =       0.000  TEMP(K) =     0.00  PRESS = -5246.8
 Etot   =    -13554.2796  EKtot   =         0.0000  EPtot      =    -13554.2796
 BOND   =         0.5568  ANGLE   =         1.6671  DIHED      =         9.4360
 1-4 NB =         3.3480  1-4 EEL =        46.5679  VDWAALS    =      2410.6485
 EELEC  =    -16026.7144  EHBOND  =         0.0000  RESTRAINT  =         0.2104
 EAMBER (non-restraint)  =    -13554.4900
 EKCMT  =         0.0000  VIRIAL  =      4188.3143  VOLUME     =     36971.3366
                                                    Density    =         0.8359
 Ewald error estimate:   0.1826E-03
 ------------------------------------------------------------------------------

      A V E R A G E S   O V E R   10000 S T E P S

 NSTEP =    10000   TIME(PS) =      20.000  TEMP(K) =   292.89  PRESS =  -185.2
 Etot   =     -8046.0753  EKtot   =      1805.4798  EPtot      =     -9851.5551
 BOND   =         3.1724  ANGLE   =         8.3074  DIHED      =        10.9746
 1-4 NB =         3.2558  1-4 EEL =        46.0760  VDWAALS    =      1474.1420
 EELEC  =    -11400.6194  EHBOND  =         0.0000  RESTRAINT  =         3.1361
 EAMBER (non-restraint)  =     -9854.6912
 EKCMT  =       897.6859  VIRIAL  =      1033.9712  VOLUME     =     31982.8751
                                                    Density    =         0.9676
 Ewald error estimate:   0.1968E-03
 ------------------------------------------------------------------------------

      R M S  F L U C T U A T I O N S

 NSTEP =    10000   TIME(PS) =      20.000  TEMP(K) =    26.36  PRESS =   443.2
 Etot   =       346.3451  EKtot   =       162.5128  EPtot      =       192.2223
 BOND   =         1.4967  ANGLE   =         2.3185  DIHED      =         1.2777
 1-4 NB =         0.7678  1-4 EEL =         2.1383  VDWAALS    =        94.3939
 EELEC  =       277.3053  EHBOND  =         0.0000  RESTRAINT  =         1.2258
 EAMBER (non-restraint)  =       190.9965
 EKCMT  =        79.0445  VIRIAL  =       289.1003  VOLUME     =      1214.8918
                                                    Density    =         0.0341
 Ewald error estimate:   0.1480E-03
 ------------------------------------------------------------------------------
