-------------------------------------------------------
          Amber 16 SANDER                              2016
          -------------------------------------------------------

  [-O]verwriting output

File Assignments:

 Here is the input file:

Equilibrate water in NPT
 &cntrl

  nmropt = 0,
  ntx    = 1,       irest  = 0,       ntrx   = 1,      ntxo   = 1,
  ntpr   = 1000,    ntwx   = 1000,    ntwv   = 0,      ntwe   = 1000,
  iwrap  = 0,       ioutfm = 1,

  ntf    = 2,       ntb    = 2,
  cut = 9.0,

  ibelly = 0,       ntr    = 1,
  restraintmask = ':1',
  restraint_wt = 100.0,

  imin   = 0,
  nstlim = 10000,
  nscm   = 1000,
  t      = 0.0,     dt     = 0.002,

  temp0     = 298.0,   tempi  = 0.0,
  ig        = -1,
  ntt       = 3,
  gamma_ln  = 3.0,

  ntp    = 1,       pres0  = 1.0,     comp   = 44.6,
  taup   = 1.0,

  ntc    = 2,       tol    = 0.000001, watnam = 'WAT ',

 &end

--------------------------------------------------------------------------------
   1.  RESOURCE   USE:
--------------------------------------------------------------------------------

 getting new box info from bottom of inpcrd

 NATOM  =    3034 NTYPES =       9 NBONH =    3024 MBONA  =       9
 NTHETH =      25 MTHETA =      11 NPHIH =      43 MPHIA  =      24
 NHPARM =       0 NPARM  =       0 NNB   =    4115 NRES   =    1007
 NBONA  =       9 NTHETA =      11 NPHIA =      24 NUMBND =      10
 NUMANG =      16 NPTRA  =      19 NATYP =       9 NPHB   =       1
 IFBOX  =       2 NMXRS  =      10 IFCAP =       0 NEXTRA =       0
 NCOPY  =       0

     BOX TYPE: TRUNCATED OCTAHEDRON
Note: ig = -1. Setting random seed to   909176 based on wallclock time in microseconds
      and disabling the synchronization of random numbers between tasks
      to improve performance.

--------------------------------------------------------------------------------
   2.  CONTROL  DATA  FOR  THE  RUN
--------------------------------------------------------------------------------

default_name

General flags:
     imin    =       0, nmropt  =       0

Nature and format of input:
     ntx     =       1, irest   =       0, ntrx    =       1

Nature and format of output:
     ntxo    =       1, ntpr    =    1000, ntrx    =       1, ntwr    =   10000
     iwrap   =       0, ntwx    =    1000, ntwv    =       0, ntwe    =    1000
     ioutfm  =       1, ntwprt  =       0, idecomp =       0, rbornstat=      0

Potential function:
     ntf     =       2, ntb     =       2, igb     =       0, nsnb    =      25
     ipol    =       0, gbsa    =       0, iesp    =       0
     dielc   =   1.00000, cut     =   9.00000, intdiel =   1.00000

Frozen or restrained atoms:
     ibelly  =       0, ntr     =       1
     restraint_wt = 100.00000

Molecular dynamics:
     nstlim  =     10000, nscm    =         0, nrespa  =         1
     t       =   0.00000, dt      =   0.00200, vlimit  =  20.00000

Langevin dynamics temperature regulation:
     ig      =  909176
     temp0   = 298.00000, tempi   =   0.00000, gamma_ln=   3.00000

Pressure regulation:
     ntp     =       1
     pres0   =   1.00000, comp    =  44.60000, taup    =   1.00000

SHAKE:
     ntc     =       2, jfastw  =       0
     tol     =   0.00000

Ewald parameters:
     verbose =       0, ew_type =       0, nbflag  =       1, use_pme =       1
     vdwmeth =       1, eedmeth =       1, netfrc  =       1
     Box X =   36.196   Box Y =   36.196   Box Z =   36.196
     Alpha =  109.471   Beta  =  109.471   Gamma =  109.471
     NFFT1 =   36       NFFT2 =   36       NFFT3 =   36
     Cutoff=    9.000   Tol   =0.100E-04
     Ewald Coefficient =  0.30768
     Interpolation order =    4

    LOADING THE CONSTRAINED ATOMS AS GROUPS

   5.  REFERENCE ATOM COORDINATES

  defa
     Mask :1; matches     6 atoms

--------------------------------------------------------------------------------
   3.  ATOMIC COORDINATES AND VELOCITIES
--------------------------------------------------------------------------------

defa
 begin time read from input coords =     0.000 ps

 Number of triangulated 3-point waters found:     1004

     Sum of charges from parm topology file =  -0.00000000
     Forcing neutrality...

--------------------------------------------------------------------------------
   4.  RESULTS
 NSTEP =        0   TIME(PS) =       0.000  TEMP(K) =     0.00  PRESS = -5309.4
 Etot   =    -13328.1934  EKtot   =         0.0000  EPtot      =    -13328.1934
 BOND   =         0.4829  ANGLE   =         2.2367  DIHED      =        11.6346
 1-4 NB =         3.0968  1-4 EEL =        46.8237  VDWAALS    =      2365.6085
 EELEC  =    -15758.1674  EHBOND  =         0.0000  RESTRAINT  =         0.0909
 EAMBER (non-restraint)  =    -13328.2843
 EKCMT  =         0.0000  VIRIAL  =      4184.9885  VOLUME     =     36506.6340
                                                    Density    =         0.8293
 Ewald error estimate:   0.1068E-04
 ------------------------------------------------------------------------------

      A V E R A G E S   O V E R   10000 S T E P S

 NSTEP =    10000   TIME(PS) =      20.000  TEMP(K) =   292.65  PRESS =  -190.5
 Etot   =     -7887.7057  EKtot   =      1767.3265  EPtot      =     -9655.0322
 BOND   =         3.3077  ANGLE   =         9.5287  DIHED      =        11.5782
 1-4 NB =         3.1525  1-4 EEL =        45.4293  VDWAALS    =      1447.9420
 EELEC  =    -11179.1019  EHBOND  =         0.0000  RESTRAINT  =         3.1313
 EAMBER (non-restraint)  =     -9658.1635
 EKCMT  =       879.3363  VIRIAL  =      1017.4434  VOLUME     =     31403.6749
                                                    Density    =         0.9655
 Ewald error estimate:   0.1872E-03
 ------------------------------------------------------------------------------

      R M S  F L U C T U A T I O N S

 NSTEP =    10000   TIME(PS) =      20.000  TEMP(K) =    26.04  PRESS =   437.9
 Etot   =       338.7448  EKtot   =       157.2514  EPtot      =       189.9046
 BOND   =         1.5660  ANGLE   =         2.4950  DIHED      =         1.4231
 1-4 NB =         0.7166  1-4 EEL =         1.8711  VDWAALS    =        92.2360
 EELEC  =       273.5464  EHBOND  =         0.0000  RESTRAINT  =         1.3629
 EAMBER (non-restraint)  =       188.5417
 EKCMT  =        76.8496  VIRIAL  =       284.5253  VOLUME     =      1267.8477
                                                    Density    =         0.0360
 Ewald error estimate:   0.1359E-03
 ------------------------------------------------------------------------------
