-------------------------------------------------------
          Amber 16 SANDER                              2016
          -------------------------------------------------------

  [-O]verwriting output

File Assignments:

 Here is the input file:

Equilibrate water in NPT
 &cntrl

  nmropt = 0,
  ntx    = 1,       irest  = 0,       ntrx   = 1,      ntxo   = 1,
  ntpr   = 1000,    ntwx   = 1000,    ntwv   = 0,      ntwe   = 1000,
  iwrap  = 0,       ioutfm = 1,

  ntf    = 2,       ntb    = 2,
  cut = 9.0,

  ibelly = 0,       ntr    = 1,
  restraintmask = ':1',
  restraint_wt = 100.0,

  imin   = 0,
  nstlim = 10000,
  nscm   = 1000,
  t      = 0.0,     dt     = 0.002,

  temp0     = 298.0,   tempi  = 0.0,
  ig        = -1,
  ntt       = 3,
  gamma_ln  = 3.0,

  ntp    = 1,       pres0  = 1.0,     comp   = 44.6,
  taup   = 1.0,

  ntc    = 2,       tol    = 0.000001, watnam = 'WAT ',

 &end

--------------------------------------------------------------------------------
   1.  RESOURCE   USE:
--------------------------------------------------------------------------------

 getting new box info from bottom of inpcrd

 NATOM  =    3001 NTYPES =       9 NBONH =    2991 MBONA  =       9
 NTHETH =      25 MTHETA =      11 NPHIH =      43 MPHIA  =      24
 NHPARM =       0 NPARM  =       0 NNB   =    4071 NRES   =     996
 NBONA  =       9 NTHETA =      11 NPHIA =      24 NUMBND =      10
 NUMANG =      16 NPTRA  =      19 NATYP =       9 NPHB   =       1
 IFBOX  =       2 NMXRS  =      10 IFCAP =       0 NEXTRA =       0
 NCOPY  =       0

     BOX TYPE: TRUNCATED OCTAHEDRON
Note: ig = -1. Setting random seed to   206680 based on wallclock time in microseconds
      and disabling the synchronization of random numbers between tasks
      to improve performance.

--------------------------------------------------------------------------------
   2.  CONTROL  DATA  FOR  THE  RUN
--------------------------------------------------------------------------------

default_name

General flags:
     imin    =       0, nmropt  =       0

Nature and format of input:
     ntx     =       1, irest   =       0, ntrx    =       1

Nature and format of output:
     ntxo    =       1, ntpr    =    1000, ntrx    =       1, ntwr    =   10000
     iwrap   =       0, ntwx    =    1000, ntwv    =       0, ntwe    =    1000
     ioutfm  =       1, ntwprt  =       0, idecomp =       0, rbornstat=      0

Potential function:
     ntf     =       2, ntb     =       2, igb     =       0, nsnb    =      25
     ipol    =       0, gbsa    =       0, iesp    =       0
     dielc   =   1.00000, cut     =   9.00000, intdiel =   1.00000

Frozen or restrained atoms:
     ibelly  =       0, ntr     =       1
     restraint_wt = 100.00000

Molecular dynamics:
     nstlim  =     10000, nscm    =         0, nrespa  =         1
     t       =   0.00000, dt      =   0.00200, vlimit  =  20.00000

Langevin dynamics temperature regulation:
     ig      =  206680
     temp0   = 298.00000, tempi   =   0.00000, gamma_ln=   3.00000

Pressure regulation:
     ntp     =       1
     pres0   =   1.00000, comp    =  44.60000, taup    =   1.00000

SHAKE:
     ntc     =       2, jfastw  =       0
     tol     =   0.00000

Ewald parameters:
     verbose =       0, ew_type =       0, nbflag  =       1, use_pme =       1
     vdwmeth =       1, eedmeth =       1, netfrc  =       1
     Box X =   36.139   Box Y =   36.139   Box Z =   36.139
     Alpha =  109.471   Beta  =  109.471   Gamma =  109.471
     NFFT1 =   36       NFFT2 =   36       NFFT3 =   36
     Cutoff=    9.000   Tol   =0.100E-04
     Ewald Coefficient =  0.30768
     Interpolation order =    4

    LOADING THE CONSTRAINED ATOMS AS GROUPS

   5.  REFERENCE ATOM COORDINATES

  defa
     Mask :1; matches     6 atoms

--------------------------------------------------------------------------------
   3.  ATOMIC COORDINATES AND VELOCITIES
--------------------------------------------------------------------------------

defa
 begin time read from input coords =     0.000 ps

 Number of triangulated 3-point waters found:      993

     Sum of charges from parm topology file =  -0.00000000
     Forcing neutrality...

--------------------------------------------------------------------------------
   4.  RESULTS
 NSTEP =        0   TIME(PS) =       0.000  TEMP(K) =     0.00  PRESS = -5207.5
 Etot   =    -13150.5741  EKtot   =         0.0000  EPtot      =    -13150.5741
 BOND   =         0.4860  ANGLE   =         1.0552  DIHED      =         9.1937
 1-4 NB =         2.7310  1-4 EEL =        46.5743  VDWAALS    =      2339.1486
 EELEC  =    -15549.8326  EHBOND  =         0.0000  RESTRAINT  =         0.0697
 EAMBER (non-restraint)  =    -13150.6438
 EKCMT  =         0.0000  VIRIAL  =      4085.1163  VOLUME     =     36332.5137
                                                    Density    =         0.8242
 Ewald error estimate:   0.1659E-03
 ------------------------------------------------------------------------------

      A V E R A G E S   O V E R   10000 S T E P S

 NSTEP =    10000   TIME(PS) =      20.000  TEMP(K) =   293.33  PRESS =  -198.5
 Etot   =     -7775.3656  EKtot   =      1752.2288  EPtot      =     -9527.5944
 BOND   =         3.0218  ANGLE   =         8.1754  DIHED      =        12.5176
 1-4 NB =         3.3239  1-4 EEL =        47.9692  VDWAALS    =      1432.6060
 EELEC  =    -11038.3797  EHBOND  =         0.0000  RESTRAINT  =         3.1715
 EAMBER (non-restraint)  =     -9530.7659
 EKCMT  =       873.2896  VIRIAL  =      1016.0145  VOLUME     =     31214.2838
                                                    Density    =         0.9610
 Ewald error estimate:   0.1854E-03
 ------------------------------------------------------------------------------

      R M S  F L U C T U A T I O N S

 NSTEP =    10000   TIME(PS) =      20.000  TEMP(K) =    26.57  PRESS =   427.1
 Etot   =       341.5434  EKtot   =       158.6916  EPtot      =       190.5235
 BOND   =         1.4518  ANGLE   =         2.4048  DIHED      =         1.4856
 1-4 NB =         0.7632  1-4 EEL =         2.1407  VDWAALS    =        92.1238
 EELEC  =       272.3158  EHBOND  =         0.0000  RESTRAINT  =         1.3828
 EAMBER (non-restraint)  =       189.1407
 EKCMT  =        78.4120  VIRIAL  =       273.3588  VOLUME     =      1327.4440
                                                    Density    =         0.0378
 Ewald error estimate:   0.1402E-03
 ------------------------------------------------------------------------------
