-------------------------------------------------------
          Amber 16 SANDER                              2016
          -------------------------------------------------------

  [-O]verwriting output

File Assignments:

 Here is the input file:

Equilibrate water in NPT
 &cntrl

  nmropt = 0,
  ntx    = 1,       irest  = 0,       ntrx   = 1,      ntxo   = 1,
  ntpr   = 1000,    ntwx   = 1000,    ntwv   = 0,      ntwe   = 1000,
  iwrap  = 0,       ioutfm = 1,

  ntf    = 2,       ntb    = 2,
  cut = 9.0,

  ibelly = 0,       ntr    = 1,
  restraintmask = ':1',
  restraint_wt = 100.0,

  imin   = 0,
  nstlim = 10000,
  nscm   = 1000,
  t      = 0.0,     dt     = 0.002,

  temp0     = 298.0,   tempi  = 0.0,
  ig        = -1,
  ntt       = 3,
  gamma_ln  = 3.0,

  ntp    = 1,       pres0  = 1.0,     comp   = 44.6,
  taup   = 1.0,

  ntc    = 2,       tol    = 0.000001, watnam = 'WAT ',

 &end

--------------------------------------------------------------------------------
   1.  RESOURCE   USE:
--------------------------------------------------------------------------------

 getting new box info from bottom of inpcrd

 NATOM  =    2761 NTYPES =       9 NBONH =    2751 MBONA  =       9
 NTHETH =      25 MTHETA =      11 NPHIH =      43 MPHIA  =      24
 NHPARM =       0 NPARM  =       0 NNB   =    3751 NRES   =     916
 NBONA  =       9 NTHETA =      11 NPHIA =      24 NUMBND =      10
 NUMANG =      16 NPTRA  =      19 NATYP =       9 NPHB   =       1
 IFBOX  =       2 NMXRS  =      10 IFCAP =       0 NEXTRA =       0
 NCOPY  =       0

     BOX TYPE: TRUNCATED OCTAHEDRON
Note: ig = -1. Setting random seed to     8264 based on wallclock time in microseconds
      and disabling the synchronization of random numbers between tasks
      to improve performance.

--------------------------------------------------------------------------------
   2.  CONTROL  DATA  FOR  THE  RUN
--------------------------------------------------------------------------------

default_name

General flags:
     imin    =       0, nmropt  =       0

Nature and format of input:
     ntx     =       1, irest   =       0, ntrx    =       1

Nature and format of output:
     ntxo    =       1, ntpr    =    1000, ntrx    =       1, ntwr    =   10000
     iwrap   =       0, ntwx    =    1000, ntwv    =       0, ntwe    =    1000
     ioutfm  =       1, ntwprt  =       0, idecomp =       0, rbornstat=      0

Potential function:
     ntf     =       2, ntb     =       2, igb     =       0, nsnb    =      25
     ipol    =       0, gbsa    =       0, iesp    =       0
     dielc   =   1.00000, cut     =   9.00000, intdiel =   1.00000

Frozen or restrained atoms:
     ibelly  =       0, ntr     =       1
     restraint_wt = 100.00000

Molecular dynamics:
     nstlim  =     10000, nscm    =         0, nrespa  =         1
     t       =   0.00000, dt      =   0.00200, vlimit  =  20.00000

Langevin dynamics temperature regulation:
     ig      =    8264
     temp0   = 298.00000, tempi   =   0.00000, gamma_ln=   3.00000

Pressure regulation:
     ntp     =       1
     pres0   =   1.00000, comp    =  44.60000, taup    =   1.00000

SHAKE:
     ntc     =       2, jfastw  =       0
     tol     =   0.00000

Ewald parameters:
     verbose =       0, ew_type =       0, nbflag  =       1, use_pme =       1
     vdwmeth =       1, eedmeth =       1, netfrc  =       1
     Box X =   35.055   Box Y =   35.055   Box Z =   35.055
     Alpha =  109.471   Beta  =  109.471   Gamma =  109.471
     NFFT1 =   36       NFFT2 =   36       NFFT3 =   36
     Cutoff=    9.000   Tol   =0.100E-04
     Ewald Coefficient =  0.30768
     Interpolation order =    4

    LOADING THE CONSTRAINED ATOMS AS GROUPS

   5.  REFERENCE ATOM COORDINATES

  defa
     Mask :1; matches     6 atoms

--------------------------------------------------------------------------------
   3.  ATOMIC COORDINATES AND VELOCITIES
--------------------------------------------------------------------------------

defa
 begin time read from input coords =     0.000 ps

 Number of triangulated 3-point waters found:      913

     Sum of charges from parm topology file =  -0.00000000
     Forcing neutrality...

--------------------------------------------------------------------------------
   4.  RESULTS
 NSTEP =        0   TIME(PS) =       0.000  TEMP(K) =     0.00  PRESS = -4778.7
 Etot   =    -12060.2170  EKtot   =         0.0000  EPtot      =    -12060.2170
 BOND   =         0.4661  ANGLE   =         1.3641  DIHED      =        12.2633
 1-4 NB =         2.5440  1-4 EEL =        46.2192  VDWAALS    =      2198.1019
 EELEC  =    -14321.3125  EHBOND  =         0.0000  RESTRAINT  =         0.1369
 EAMBER (non-restraint)  =    -12060.3539
 EKCMT  =         0.0000  VIRIAL  =      3421.6145  VOLUME     =     33162.0146
                                                    Density    =         0.8309
 Ewald error estimate:   0.2140E-03
 ------------------------------------------------------------------------------

      A V E R A G E S   O V E R   10000 S T E P S

 NSTEP =    10000   TIME(PS) =      20.000  TEMP(K) =   292.70  PRESS =  -186.1
 Etot   =     -7159.7202  EKtot   =      1608.8618  EPtot      =     -8768.5820
 BOND   =         3.1982  ANGLE   =         8.9008  DIHED      =        11.7238
 1-4 NB =         3.4530  1-4 EEL =        45.5128  VDWAALS    =      1321.1377
 EELEC  =    -10165.6418  EHBOND  =         0.0000  RESTRAINT  =         3.1333
 EAMBER (non-restraint)  =     -8771.7153
 EKCMT  =       801.1554  VIRIAL  =       923.9062  VOLUME     =     28737.4585
                                                    Density    =         0.9602
 Ewald error estimate:   0.2006E-03
 ------------------------------------------------------------------------------

      R M S  F L U C T U A T I O N S

 NSTEP =    10000   TIME(PS) =      20.000  TEMP(K) =    26.09  PRESS =   438.1
 Etot   =       302.7998  EKtot   =       143.3948  EPtot      =       167.6172
 BOND   =         1.5076  ANGLE   =         2.4602  DIHED      =         1.3215
 1-4 NB =         0.8074  1-4 EEL =         2.0317  VDWAALS    =        86.6349
 EELEC  =       244.6121  EHBOND  =         0.0000  RESTRAINT  =         1.2342
 EAMBER (non-restraint)  =       166.3830
 EKCMT  =        70.3275  VIRIAL  =       262.7819  VOLUME     =      1151.5975
                                                    Density    =         0.0356
 Ewald error estimate:   0.1501E-03
 ------------------------------------------------------------------------------
