-------------------------------------------------------
          Amber 16 SANDER                              2016
          -------------------------------------------------------

  [-O]verwriting output

File Assignments:

 Here is the input file:

Equilibrate water in NPT
 &cntrl

  nmropt = 0,
  ntx    = 1,       irest  = 0,       ntrx   = 1,      ntxo   = 1,
  ntpr   = 1000,    ntwx   = 1000,    ntwv   = 0,      ntwe   = 1000,
  iwrap  = 0,       ioutfm = 1,

  ntf    = 2,       ntb    = 2,
  cut = 9.0,

  ibelly = 0,       ntr    = 1,
  restraintmask = ':1',
  restraint_wt = 100.0,

  imin   = 0,
  nstlim = 10000,
  nscm   = 1000,
  t      = 0.0,     dt     = 0.002,

  temp0     = 298.0,   tempi  = 0.0,
  ig        = -1,
  ntt       = 3,
  gamma_ln  = 3.0,

  ntp    = 1,       pres0  = 1.0,     comp   = 44.6,
  taup   = 1.0,

  ntc    = 2,       tol    = 0.000001, watnam = 'WAT ',

 &end

--------------------------------------------------------------------------------
   1.  RESOURCE   USE:
--------------------------------------------------------------------------------

 getting new box info from bottom of inpcrd

 NATOM  =    3004 NTYPES =       9 NBONH =    2994 MBONA  =       9
 NTHETH =      25 MTHETA =      11 NPHIH =      43 MPHIA  =      24
 NHPARM =       0 NPARM  =       0 NNB   =    4075 NRES   =     997
 NBONA  =       9 NTHETA =      11 NPHIA =      24 NUMBND =      10
 NUMANG =      16 NPTRA  =      19 NATYP =       9 NPHB   =       1
 IFBOX  =       2 NMXRS  =      10 IFCAP =       0 NEXTRA =       0
 NCOPY  =       0

     BOX TYPE: TRUNCATED OCTAHEDRON
Note: ig = -1. Setting random seed to   144584 based on wallclock time in microseconds
      and disabling the synchronization of random numbers between tasks
      to improve performance.

--------------------------------------------------------------------------------
   2.  CONTROL  DATA  FOR  THE  RUN
--------------------------------------------------------------------------------

default_name

General flags:
     imin    =       0, nmropt  =       0

Nature and format of input:
     ntx     =       1, irest   =       0, ntrx    =       1

Nature and format of output:
     ntxo    =       1, ntpr    =    1000, ntrx    =       1, ntwr    =   10000
     iwrap   =       0, ntwx    =    1000, ntwv    =       0, ntwe    =    1000
     ioutfm  =       1, ntwprt  =       0, idecomp =       0, rbornstat=      0

Potential function:
     ntf     =       2, ntb     =       2, igb     =       0, nsnb    =      25
     ipol    =       0, gbsa    =       0, iesp    =       0
     dielc   =   1.00000, cut     =   9.00000, intdiel =   1.00000

Frozen or restrained atoms:
     ibelly  =       0, ntr     =       1
     restraint_wt = 100.00000

Molecular dynamics:
     nstlim  =     10000, nscm    =         0, nrespa  =         1
     t       =   0.00000, dt      =   0.00200, vlimit  =  20.00000

Langevin dynamics temperature regulation:
     ig      =  144584
     temp0   = 298.00000, tempi   =   0.00000, gamma_ln=   3.00000

Pressure regulation:
     ntp     =       1
     pres0   =   1.00000, comp    =  44.60000, taup    =   1.00000

SHAKE:
     ntc     =       2, jfastw  =       0
     tol     =   0.00000

Ewald parameters:
     verbose =       0, ew_type =       0, nbflag  =       1, use_pme =       1
     vdwmeth =       1, eedmeth =       1, netfrc  =       1
     Box X =   36.172   Box Y =   36.172   Box Z =   36.172
     Alpha =  109.471   Beta  =  109.471   Gamma =  109.471
     NFFT1 =   36       NFFT2 =   36       NFFT3 =   36
     Cutoff=    9.000   Tol   =0.100E-04
     Ewald Coefficient =  0.30768
     Interpolation order =    4

    LOADING THE CONSTRAINED ATOMS AS GROUPS

   5.  REFERENCE ATOM COORDINATES

  defa
     Mask :1; matches     6 atoms

--------------------------------------------------------------------------------
   3.  ATOMIC COORDINATES AND VELOCITIES
--------------------------------------------------------------------------------

defa
 begin time read from input coords =     0.000 ps

 Number of triangulated 3-point waters found:      994

     Sum of charges from parm topology file =  -0.00000000
     Forcing neutrality...

--------------------------------------------------------------------------------
   4.  RESULTS
 NSTEP =        0   TIME(PS) =       0.000  TEMP(K) =     0.00  PRESS = -5097.9
 Etot   =    -13079.9486  EKtot   =         0.0000  EPtot      =    -13079.9486
 BOND   =         0.4064  ANGLE   =         1.9010  DIHED      =         9.3065
 1-4 NB =         3.2752  1-4 EEL =        45.2349  VDWAALS    =      2336.2222
 EELEC  =    -15476.5194  EHBOND  =         0.0000  RESTRAINT  =         0.2247
 EAMBER (non-restraint)  =    -13080.1732
 EKCMT  =         0.0000  VIRIAL  =      4010.2862  VOLUME     =     36434.2556
                                                    Density    =         0.8228
 Ewald error estimate:   0.4501E-04
 ------------------------------------------------------------------------------

      A V E R A G E S   O V E R   10000 S T E P S

 NSTEP =    10000   TIME(PS) =      20.000  TEMP(K) =   292.63  PRESS =  -205.6
 Etot   =     -7797.2338  EKtot   =      1749.7968  EPtot      =     -9547.0307
 BOND   =         3.1302  ANGLE   =         8.3420  DIHED      =        11.9540
 1-4 NB =         3.2761  1-4 EEL =        45.7944  VDWAALS    =      1426.3437
 EELEC  =    -11048.8122  EHBOND  =         0.0000  RESTRAINT  =         2.9411
 EAMBER (non-restraint)  =     -9549.9718
 EKCMT  =       869.7487  VIRIAL  =      1017.5364  VOLUME     =     31072.4026
                                                    Density    =         0.9664
 Ewald error estimate:   0.1899E-03
 ------------------------------------------------------------------------------

      R M S  F L U C T U A T I O N S

 NSTEP =    10000   TIME(PS) =      20.000  TEMP(K) =    26.49  PRESS =   455.4
 Etot   =       331.3801  EKtot   =       158.4214  EPtot      =       181.6278
 BOND   =         1.4399  ANGLE   =         2.2697  DIHED      =         1.3609
 1-4 NB =         0.7076  1-4 EEL =         2.0969  VDWAALS    =        90.1119
 EELEC  =       261.1181  EHBOND  =         0.0000  RESTRAINT  =         1.1923
 EAMBER (non-restraint)  =       180.4354
 EKCMT  =        76.2173  VIRIAL  =       292.6380  VOLUME     =      1359.5905
                                                    Density    =         0.0389
 Ewald error estimate:   0.1425E-03
 ------------------------------------------------------------------------------
